data_image0
_chemical_formula_structural       La16Zr16O56La16Zr16O56La16Zr16O56La16Zr16O56La16Zr16O56La16Zr16O56La16Zr16O56La16Zr16O56La16Zr16O56La16Zr16O56La16Zr16O56La16Zr16O56La16Zr16O56La16Zr16O56La16Zr16O56La16Zr16O56La16Zr16O56La16Zr16O56La16Zr16O56La16Zr16O56La16Zr16O56La16Zr16O56La16Zr16O56La16Zr16O56La16Zr16O56La16Zr16O56La16Zr16O56La16Zr16O56La16Zr16O56La16Zr16O56La16Zr16O56La16Zr16O56La16Zr16O56La16Zr16O56La16Zr16O56La16Zr16O56La16Zr16O56La16Zr16O56La16Zr16O56La16Zr16O56La16Zr16O56La16Zr16O56La16Zr16O56La16Zr16O56La16Zr16O56La16Zr16O56La16Zr16O56La16Zr16O56La16Zr16O56La16Zr16O56La16Zr16O56La16Zr16O56La16Zr16O56La16Zr16O56La16Zr16O56La16Zr16O56La16Zr16O56La16Zr16O56La16Zr16O56La16Zr16O56La16Zr16O56La16Zr16O56La16Zr16O56La16Zr16O56
_chemical_formula_sum              "La1024 Zr1024 O3584"
_cell_length_a       43.292
_cell_length_b       43.292
_cell_length_c       43.292
_cell_angle_alpha    90
_cell_angle_beta     90
_cell_angle_gamma    90

_space_group_name_H-M_alt    "P 1"
_space_group_IT_number       1

loop_
  _space_group_symop_operation_xyz
  'x, y, z'

loop_
  _atom_site_type_symbol
  _atom_site_label
  _atom_site_symmetry_multiplicity
  _atom_site_fract_x
  _atom_site_fract_y
  _atom_site_fract_z
  _atom_site_occupancy
  La  La1       1.0  0.09375  0.09375  0.15625  1.0000
  La  La2       1.0  0.09375  0.21875  0.03125  1.0000
  La  La3       1.0  0.09375  0.15625  0.09375  1.0000
  La  La4       1.0  0.09375  0.03125  0.21875  1.0000
  La  La5       1.0  0.03125  0.03125  0.15625  1.0000
  La  La6       1.0  0.03125  0.15625  0.03125  1.0000
  La  La7       1.0  0.03125  0.09375  0.21875  1.0000
  La  La8       1.0  0.03125  0.21875  0.09375  1.0000
  La  La9       1.0  0.15625  0.03125  0.03125  1.0000
  La  La10      1.0  0.15625  0.15625  0.15625  1.0000
  La  La11      1.0  0.15625  0.09375  0.09375  1.0000
  La  La12      1.0  0.15625  0.21875  0.21875  1.0000
  La  La13      1.0  0.21875  0.09375  0.03125  1.0000
  La  La14      1.0  0.21875  0.21875  0.15625  1.0000
  La  La15      1.0  0.21875  0.15625  0.21875  1.0000
  La  La16      1.0  0.21875  0.03125  0.09375  1.0000
  Zr  Zr1       1.0  0.09375  0.09375  0.03125  1.0000
  Zr  Zr2       1.0  0.09375  0.21875  0.15625  1.0000
  Zr  Zr3       1.0  0.09375  0.15625  0.21875  1.0000
  Zr  Zr4       1.0  0.09375  0.03125  0.09375  1.0000
  Zr  Zr5       1.0  0.03125  0.03125  0.03125  1.0000
  Zr  Zr6       1.0  0.03125  0.15625  0.15625  1.0000
  Zr  Zr7       1.0  0.03125  0.09375  0.09375  1.0000
  Zr  Zr8       1.0  0.03125  0.21875  0.21875  1.0000
  Zr  Zr9       1.0  0.15625  0.03125  0.15625  1.0000
  Zr  Zr10      1.0  0.15625  0.15625  0.03125  1.0000
  Zr  Zr11      1.0  0.15625  0.09375  0.21875  1.0000
  Zr  Zr12      1.0  0.15625  0.21875  0.09375  1.0000
  Zr  Zr13      1.0  0.21875  0.09375  0.15625  1.0000
  Zr  Zr14      1.0  0.21875  0.21875  0.03125  1.0000
  Zr  Zr15      1.0  0.21875  0.15625  0.09375  1.0000
  Zr  Zr16      1.0  0.21875  0.03125  0.21875  1.0000
  O   O1        1.0  0.12500  0.12500  0.04910  1.0000
  O   O2        1.0  0.12500  0.00000  0.17410  1.0000
  O   O3        1.0  0.12500  0.07590  0.00000  1.0000
  O   O4        1.0  0.12500  0.20090  0.12500  1.0000
  O   O5        1.0  0.12500  0.12500  0.20090  1.0000
  O   O6        1.0  0.12500  0.00000  0.07590  1.0000
  O   O7        1.0  0.12500  0.17410  0.00000  1.0000
  O   O8        1.0  0.12500  0.04910  0.12500  1.0000
  O   O9        1.0  0.06250  0.06250  0.01340  1.0000
  O   O10       1.0  0.06250  0.18750  0.13840  1.0000
  O   O11       1.0  0.06250  0.01340  0.06250  1.0000
  O   O12       1.0  0.06250  0.13840  0.18750  1.0000
  O   O13       1.0  0.06250  0.06250  0.11160  1.0000
  O   O14       1.0  0.06250  0.18750  0.23660  1.0000
  O   O15       1.0  0.06250  0.11160  0.06250  1.0000
  O   O16       1.0  0.06250  0.23660  0.18750  1.0000
  O   O17       1.0  0.18750  0.06250  0.13840  1.0000
  O   O18       1.0  0.18750  0.18750  0.01340  1.0000
  O   O19       1.0  0.18750  0.01340  0.18750  1.0000
  O   O20       1.0  0.18750  0.13840  0.06250  1.0000
  O   O21       1.0  0.18750  0.06250  0.23660  1.0000
  O   O22       1.0  0.18750  0.18750  0.11160  1.0000
  O   O23       1.0  0.18750  0.11160  0.18750  1.0000
  O   O24       1.0  0.18750  0.23660  0.06250  1.0000
  O   O25       1.0  0.00000  0.12500  0.17410  1.0000
  O   O26       1.0  0.00000  0.00000  0.04910  1.0000
  O   O27       1.0  0.00000  0.07590  0.12500  1.0000
  O   O28       1.0  0.00000  0.20090  0.00000  1.0000
  O   O29       1.0  0.00000  0.12500  0.07590  1.0000
  O   O30       1.0  0.00000  0.00000  0.20090  1.0000
  O   O31       1.0  0.00000  0.17410  0.12500  1.0000
  O   O32       1.0  0.00000  0.04910  0.00000  1.0000
  O   O33       1.0  0.07590  0.12500  0.00000  1.0000
  O   O34       1.0  0.07590  0.00000  0.12500  1.0000
  O   O35       1.0  0.01340  0.06250  0.06250  1.0000
  O   O36       1.0  0.01340  0.18750  0.18750  1.0000
  O   O37       1.0  0.13840  0.06250  0.18750  1.0000
  O   O38       1.0  0.13840  0.18750  0.06250  1.0000
  O   O39       1.0  0.20090  0.12500  0.12500  1.0000
  O   O40       1.0  0.20090  0.00000  0.00000  1.0000
  O   O41       1.0  0.17410  0.12500  0.00000  1.0000
  O   O42       1.0  0.17410  0.00000  0.12500  1.0000
  O   O43       1.0  0.11160  0.06250  0.06250  1.0000
  O   O44       1.0  0.11160  0.18750  0.18750  1.0000
  O   O45       1.0  0.23660  0.06250  0.18750  1.0000
  O   O46       1.0  0.23660  0.18750  0.06250  1.0000
  O   O47       1.0  0.04910  0.12500  0.12500  1.0000
  O   O48       1.0  0.04910  0.00000  0.00000  1.0000
  O   O49       1.0  0.12500  0.12500  0.12500  1.0000
  O   O50       1.0  0.12500  0.00000  0.00000  1.0000
  O   O51       1.0  0.06250  0.06250  0.18750  1.0000
  O   O52       1.0  0.06250  0.18750  0.06250  1.0000
  O   O53       1.0  0.18750  0.06250  0.06250  1.0000
  O   O54       1.0  0.18750  0.18750  0.18750  1.0000
  O   O55       1.0  0.00000  0.12500  0.00000  1.0000
  O   O56       1.0  0.00000  0.00000  0.12500  1.0000
  La  La17      1.0  0.09375  0.09375  0.40625  1.0000
  La  La18      1.0  0.09375  0.21875  0.28125  1.0000
  La  La19      1.0  0.09375  0.15625  0.34375  1.0000
  La  La20      1.0  0.09375  0.03125  0.46875  1.0000
  La  La21      1.0  0.03125  0.03125  0.40625  1.0000
  La  La22      1.0  0.03125  0.15625  0.28125  1.0000
  La  La23      1.0  0.03125  0.09375  0.46875  1.0000
  La  La24      1.0  0.03125  0.21875  0.34375  1.0000
  La  La25      1.0  0.15625  0.03125  0.28125  1.0000
  La  La26      1.0  0.15625  0.15625  0.40625  1.0000
  La  La27      1.0  0.15625  0.09375  0.34375  1.0000
  La  La28      1.0  0.15625  0.21875  0.46875  1.0000
  La  La29      1.0  0.21875  0.09375  0.28125  1.0000
  La  La30      1.0  0.21875  0.21875  0.40625  1.0000
  La  La31      1.0  0.21875  0.15625  0.46875  1.0000
  La  La32      1.0  0.21875  0.03125  0.34375  1.0000
  Zr  Zr17      1.0  0.09375  0.09375  0.28125  1.0000
  Zr  Zr18      1.0  0.09375  0.21875  0.40625  1.0000
  Zr  Zr19      1.0  0.09375  0.15625  0.46875  1.0000
  Zr  Zr20      1.0  0.09375  0.03125  0.34375  1.0000
  Zr  Zr21      1.0  0.03125  0.03125  0.28125  1.0000
  Zr  Zr22      1.0  0.03125  0.15625  0.40625  1.0000
  Zr  Zr23      1.0  0.03125  0.09375  0.34375  1.0000
  Zr  Zr24      1.0  0.03125  0.21875  0.46875  1.0000
  Zr  Zr25      1.0  0.15625  0.03125  0.40625  1.0000
  Zr  Zr26      1.0  0.15625  0.15625  0.28125  1.0000
  Zr  Zr27      1.0  0.15625  0.09375  0.46875  1.0000
  Zr  Zr28      1.0  0.15625  0.21875  0.34375  1.0000
  Zr  Zr29      1.0  0.21875  0.09375  0.40625  1.0000
  Zr  Zr30      1.0  0.21875  0.21875  0.28125  1.0000
  Zr  Zr31      1.0  0.21875  0.15625  0.34375  1.0000
  Zr  Zr32      1.0  0.21875  0.03125  0.46875  1.0000
  O   O57       1.0  0.12500  0.12500  0.29910  1.0000
  O   O58       1.0  0.12500  0.00000  0.42410  1.0000
  O   O59       1.0  0.12500  0.07590  0.25000  1.0000
  O   O60       1.0  0.12500  0.20090  0.37500  1.0000
  O   O61       1.0  0.12500  0.12500  0.45090  1.0000
  O   O62       1.0  0.12500  0.00000  0.32590  1.0000
  O   O63       1.0  0.12500  0.17410  0.25000  1.0000
  O   O64       1.0  0.12500  0.04910  0.37500  1.0000
  O   O65       1.0  0.06250  0.06250  0.26340  1.0000
  O   O66       1.0  0.06250  0.18750  0.38840  1.0000
  O   O67       1.0  0.06250  0.01340  0.31250  1.0000
  O   O68       1.0  0.06250  0.13840  0.43750  1.0000
  O   O69       1.0  0.06250  0.06250  0.36160  1.0000
  O   O70       1.0  0.06250  0.18750  0.48660  1.0000
  O   O71       1.0  0.06250  0.11160  0.31250  1.0000
  O   O72       1.0  0.06250  0.23660  0.43750  1.0000
  O   O73       1.0  0.18750  0.06250  0.38840  1.0000
  O   O74       1.0  0.18750  0.18750  0.26340  1.0000
  O   O75       1.0  0.18750  0.01340  0.43750  1.0000
  O   O76       1.0  0.18750  0.13840  0.31250  1.0000
  O   O77       1.0  0.18750  0.06250  0.48660  1.0000
  O   O78       1.0  0.18750  0.18750  0.36160  1.0000
  O   O79       1.0  0.18750  0.11160  0.43750  1.0000
  O   O80       1.0  0.18750  0.23660  0.31250  1.0000
  O   O81       1.0  0.00000  0.12500  0.42410  1.0000
  O   O82       1.0  0.00000  0.00000  0.29910  1.0000
  O   O83       1.0  0.00000  0.07590  0.37500  1.0000
  O   O84       1.0  0.00000  0.20090  0.25000  1.0000
  O   O85       1.0  0.00000  0.12500  0.32590  1.0000
  O   O86       1.0  0.00000  0.00000  0.45090  1.0000
  O   O87       1.0  0.00000  0.17410  0.37500  1.0000
  O   O88       1.0  0.00000  0.04910  0.25000  1.0000
  O   O89       1.0  0.07590  0.12500  0.25000  1.0000
  O   O90       1.0  0.07590  0.00000  0.37500  1.0000
  O   O91       1.0  0.01340  0.06250  0.31250  1.0000
  O   O92       1.0  0.01340  0.18750  0.43750  1.0000
  O   O93       1.0  0.13840  0.06250  0.43750  1.0000
  O   O94       1.0  0.13840  0.18750  0.31250  1.0000
  O   O95       1.0  0.20090  0.12500  0.37500  1.0000
  O   O96       1.0  0.20090  0.00000  0.25000  1.0000
  O   O97       1.0  0.17410  0.12500  0.25000  1.0000
  O   O98       1.0  0.17410  0.00000  0.37500  1.0000
  O   O99       1.0  0.11160  0.06250  0.31250  1.0000
  O   O100      1.0  0.11160  0.18750  0.43750  1.0000
  O   O101      1.0  0.23660  0.06250  0.43750  1.0000
  O   O102      1.0  0.23660  0.18750  0.31250  1.0000
  O   O103      1.0  0.04910  0.12500  0.37500  1.0000
  O   O104      1.0  0.04910  0.00000  0.25000  1.0000
  O   O105      1.0  0.12500  0.12500  0.37500  1.0000
  O   O106      1.0  0.12500  0.00000  0.25000  1.0000
  O   O107      1.0  0.06250  0.06250  0.43750  1.0000
  O   O108      1.0  0.06250  0.18750  0.31250  1.0000
  O   O109      1.0  0.18750  0.06250  0.31250  1.0000
  O   O110      1.0  0.18750  0.18750  0.43750  1.0000
  O   O111      1.0  0.00000  0.12500  0.25000  1.0000
  O   O112      1.0  0.00000  0.00000  0.37500  1.0000
  La  La33      1.0  0.09375  0.09375  0.65625  1.0000
  La  La34      1.0  0.09375  0.21875  0.53125  1.0000
  La  La35      1.0  0.09375  0.15625  0.59375  1.0000
  La  La36      1.0  0.09375  0.03125  0.71875  1.0000
  La  La37      1.0  0.03125  0.03125  0.65625  1.0000
  La  La38      1.0  0.03125  0.15625  0.53125  1.0000
  La  La39      1.0  0.03125  0.09375  0.71875  1.0000
  La  La40      1.0  0.03125  0.21875  0.59375  1.0000
  La  La41      1.0  0.15625  0.03125  0.53125  1.0000
  La  La42      1.0  0.15625  0.15625  0.65625  1.0000
  La  La43      1.0  0.15625  0.09375  0.59375  1.0000
  La  La44      1.0  0.15625  0.21875  0.71875  1.0000
  La  La45      1.0  0.21875  0.09375  0.53125  1.0000
  La  La46      1.0  0.21875  0.21875  0.65625  1.0000
  La  La47      1.0  0.21875  0.15625  0.71875  1.0000
  La  La48      1.0  0.21875  0.03125  0.59375  1.0000
  Zr  Zr33      1.0  0.09375  0.09375  0.53125  1.0000
  Zr  Zr34      1.0  0.09375  0.21875  0.65625  1.0000
  Zr  Zr35      1.0  0.09375  0.15625  0.71875  1.0000
  Zr  Zr36      1.0  0.09375  0.03125  0.59375  1.0000
  Zr  Zr37      1.0  0.03125  0.03125  0.53125  1.0000
  Zr  Zr38      1.0  0.03125  0.15625  0.65625  1.0000
  Zr  Zr39      1.0  0.03125  0.09375  0.59375  1.0000
  Zr  Zr40      1.0  0.03125  0.21875  0.71875  1.0000
  Zr  Zr41      1.0  0.15625  0.03125  0.65625  1.0000
  Zr  Zr42      1.0  0.15625  0.15625  0.53125  1.0000
  Zr  Zr43      1.0  0.15625  0.09375  0.71875  1.0000
  Zr  Zr44      1.0  0.15625  0.21875  0.59375  1.0000
  Zr  Zr45      1.0  0.21875  0.09375  0.65625  1.0000
  Zr  Zr46      1.0  0.21875  0.21875  0.53125  1.0000
  Zr  Zr47      1.0  0.21875  0.15625  0.59375  1.0000
  Zr  Zr48      1.0  0.21875  0.03125  0.71875  1.0000
  O   O113      1.0  0.12500  0.12500  0.54910  1.0000
  O   O114      1.0  0.12500  0.00000  0.67410  1.0000
  O   O115      1.0  0.12500  0.07590  0.50000  1.0000
  O   O116      1.0  0.12500  0.20090  0.62500  1.0000
  O   O117      1.0  0.12500  0.12500  0.70090  1.0000
  O   O118      1.0  0.12500  0.00000  0.57590  1.0000
  O   O119      1.0  0.12500  0.17410  0.50000  1.0000
  O   O120      1.0  0.12500  0.04910  0.62500  1.0000
  O   O121      1.0  0.06250  0.06250  0.51340  1.0000
  O   O122      1.0  0.06250  0.18750  0.63840  1.0000
  O   O123      1.0  0.06250  0.01340  0.56250  1.0000
  O   O124      1.0  0.06250  0.13840  0.68750  1.0000
  O   O125      1.0  0.06250  0.06250  0.61160  1.0000
  O   O126      1.0  0.06250  0.18750  0.73660  1.0000
  O   O127      1.0  0.06250  0.11160  0.56250  1.0000
  O   O128      1.0  0.06250  0.23660  0.68750  1.0000
  O   O129      1.0  0.18750  0.06250  0.63840  1.0000
  O   O130      1.0  0.18750  0.18750  0.51340  1.0000
  O   O131      1.0  0.18750  0.01340  0.68750  1.0000
  O   O132      1.0  0.18750  0.13840  0.56250  1.0000
  O   O133      1.0  0.18750  0.06250  0.73660  1.0000
  O   O134      1.0  0.18750  0.18750  0.61160  1.0000
  O   O135      1.0  0.18750  0.11160  0.68750  1.0000
  O   O136      1.0  0.18750  0.23660  0.56250  1.0000
  O   O137      1.0  0.00000  0.12500  0.67410  1.0000
  O   O138      1.0  0.00000  0.00000  0.54910  1.0000
  O   O139      1.0  0.00000  0.07590  0.62500  1.0000
  O   O140      1.0  0.00000  0.20090  0.50000  1.0000
  O   O141      1.0  0.00000  0.12500  0.57590  1.0000
  O   O142      1.0  0.00000  0.00000  0.70090  1.0000
  O   O143      1.0  0.00000  0.17410  0.62500  1.0000
  O   O144      1.0  0.00000  0.04910  0.50000  1.0000
  O   O145      1.0  0.07590  0.12500  0.50000  1.0000
  O   O146      1.0  0.07590  0.00000  0.62500  1.0000
  O   O147      1.0  0.01340  0.06250  0.56250  1.0000
  O   O148      1.0  0.01340  0.18750  0.68750  1.0000
  O   O149      1.0  0.13840  0.06250  0.68750  1.0000
  O   O150      1.0  0.13840  0.18750  0.56250  1.0000
  O   O151      1.0  0.20090  0.12500  0.62500  1.0000
  O   O152      1.0  0.20090  0.00000  0.50000  1.0000
  O   O153      1.0  0.17410  0.12500  0.50000  1.0000
  O   O154      1.0  0.17410  0.00000  0.62500  1.0000
  O   O155      1.0  0.11160  0.06250  0.56250  1.0000
  O   O156      1.0  0.11160  0.18750  0.68750  1.0000
  O   O157      1.0  0.23660  0.06250  0.68750  1.0000
  O   O158      1.0  0.23660  0.18750  0.56250  1.0000
  O   O159      1.0  0.04910  0.12500  0.62500  1.0000
  O   O160      1.0  0.04910  0.00000  0.50000  1.0000
  O   O161      1.0  0.12500  0.12500  0.62500  1.0000
  O   O162      1.0  0.12500  0.00000  0.50000  1.0000
  O   O163      1.0  0.06250  0.06250  0.68750  1.0000
  O   O164      1.0  0.06250  0.18750  0.56250  1.0000
  O   O165      1.0  0.18750  0.06250  0.56250  1.0000
  O   O166      1.0  0.18750  0.18750  0.68750  1.0000
  O   O167      1.0  0.00000  0.12500  0.50000  1.0000
  O   O168      1.0  0.00000  0.00000  0.62500  1.0000
  La  La49      1.0  0.09375  0.09375  0.90625  1.0000
  La  La50      1.0  0.09375  0.21875  0.78125  1.0000
  La  La51      1.0  0.09375  0.15625  0.84375  1.0000
  La  La52      1.0  0.09375  0.03125  0.96875  1.0000
  La  La53      1.0  0.03125  0.03125  0.90625  1.0000
  La  La54      1.0  0.03125  0.15625  0.78125  1.0000
  La  La55      1.0  0.03125  0.09375  0.96875  1.0000
  La  La56      1.0  0.03125  0.21875  0.84375  1.0000
  La  La57      1.0  0.15625  0.03125  0.78125  1.0000
  La  La58      1.0  0.15625  0.15625  0.90625  1.0000
  La  La59      1.0  0.15625  0.09375  0.84375  1.0000
  La  La60      1.0  0.15625  0.21875  0.96875  1.0000
  La  La61      1.0  0.21875  0.09375  0.78125  1.0000
  La  La62      1.0  0.21875  0.21875  0.90625  1.0000
  La  La63      1.0  0.21875  0.15625  0.96875  1.0000
  La  La64      1.0  0.21875  0.03125  0.84375  1.0000
  Zr  Zr49      1.0  0.09375  0.09375  0.78125  1.0000
  Zr  Zr50      1.0  0.09375  0.21875  0.90625  1.0000
  Zr  Zr51      1.0  0.09375  0.15625  0.96875  1.0000
  Zr  Zr52      1.0  0.09375  0.03125  0.84375  1.0000
  Zr  Zr53      1.0  0.03125  0.03125  0.78125  1.0000
  Zr  Zr54      1.0  0.03125  0.15625  0.90625  1.0000
  Zr  Zr55      1.0  0.03125  0.09375  0.84375  1.0000
  Zr  Zr56      1.0  0.03125  0.21875  0.96875  1.0000
  Zr  Zr57      1.0  0.15625  0.03125  0.90625  1.0000
  Zr  Zr58      1.0  0.15625  0.15625  0.78125  1.0000
  Zr  Zr59      1.0  0.15625  0.09375  0.96875  1.0000
  Zr  Zr60      1.0  0.15625  0.21875  0.84375  1.0000
  Zr  Zr61      1.0  0.21875  0.09375  0.90625  1.0000
  Zr  Zr62      1.0  0.21875  0.21875  0.78125  1.0000
  Zr  Zr63      1.0  0.21875  0.15625  0.84375  1.0000
  Zr  Zr64      1.0  0.21875  0.03125  0.96875  1.0000
  O   O169      1.0  0.12500  0.12500  0.79910  1.0000
  O   O170      1.0  0.12500  0.00000  0.92410  1.0000
  O   O171      1.0  0.12500  0.07590  0.75000  1.0000
  O   O172      1.0  0.12500  0.20090  0.87500  1.0000
  O   O173      1.0  0.12500  0.12500  0.95090  1.0000
  O   O174      1.0  0.12500  0.00000  0.82590  1.0000
  O   O175      1.0  0.12500  0.17410  0.75000  1.0000
  O   O176      1.0  0.12500  0.04910  0.87500  1.0000
  O   O177      1.0  0.06250  0.06250  0.76340  1.0000
  O   O178      1.0  0.06250  0.18750  0.88840  1.0000
  O   O179      1.0  0.06250  0.01340  0.81250  1.0000
  O   O180      1.0  0.06250  0.13840  0.93750  1.0000
  O   O181      1.0  0.06250  0.06250  0.86160  1.0000
  O   O182      1.0  0.06250  0.18750  0.98660  1.0000
  O   O183      1.0  0.06250  0.11160  0.81250  1.0000
  O   O184      1.0  0.06250  0.23660  0.93750  1.0000
  O   O185      1.0  0.18750  0.06250  0.88840  1.0000
  O   O186      1.0  0.18750  0.18750  0.76340  1.0000
  O   O187      1.0  0.18750  0.01340  0.93750  1.0000
  O   O188      1.0  0.18750  0.13840  0.81250  1.0000
  O   O189      1.0  0.18750  0.06250  0.98660  1.0000
  O   O190      1.0  0.18750  0.18750  0.86160  1.0000
  O   O191      1.0  0.18750  0.11160  0.93750  1.0000
  O   O192      1.0  0.18750  0.23660  0.81250  1.0000
  O   O193      1.0  0.00000  0.12500  0.92410  1.0000
  O   O194      1.0  0.00000  0.00000  0.79910  1.0000
  O   O195      1.0  0.00000  0.07590  0.87500  1.0000
  O   O196      1.0  0.00000  0.20090  0.75000  1.0000
  O   O197      1.0  0.00000  0.12500  0.82590  1.0000
  O   O198      1.0  0.00000  0.00000  0.95090  1.0000
  O   O199      1.0  0.00000  0.17410  0.87500  1.0000
  O   O200      1.0  0.00000  0.04910  0.75000  1.0000
  O   O201      1.0  0.07590  0.12500  0.75000  1.0000
  O   O202      1.0  0.07590  0.00000  0.87500  1.0000
  O   O203      1.0  0.01340  0.06250  0.81250  1.0000
  O   O204      1.0  0.01340  0.18750  0.93750  1.0000
  O   O205      1.0  0.13840  0.06250  0.93750  1.0000
  O   O206      1.0  0.13840  0.18750  0.81250  1.0000
  O   O207      1.0  0.20090  0.12500  0.87500  1.0000
  O   O208      1.0  0.20090  0.00000  0.75000  1.0000
  O   O209      1.0  0.17410  0.12500  0.75000  1.0000
  O   O210      1.0  0.17410  0.00000  0.87500  1.0000
  O   O211      1.0  0.11160  0.06250  0.81250  1.0000
  O   O212      1.0  0.11160  0.18750  0.93750  1.0000
  O   O213      1.0  0.23660  0.06250  0.93750  1.0000
  O   O214      1.0  0.23660  0.18750  0.81250  1.0000
  O   O215      1.0  0.04910  0.12500  0.87500  1.0000
  O   O216      1.0  0.04910  0.00000  0.75000  1.0000
  O   O217      1.0  0.12500  0.12500  0.87500  1.0000
  O   O218      1.0  0.12500  0.00000  0.75000  1.0000
  O   O219      1.0  0.06250  0.06250  0.93750  1.0000
  O   O220      1.0  0.06250  0.18750  0.81250  1.0000
  O   O221      1.0  0.18750  0.06250  0.81250  1.0000
  O   O222      1.0  0.18750  0.18750  0.93750  1.0000
  O   O223      1.0  0.00000  0.12500  0.75000  1.0000
  O   O224      1.0  0.00000  0.00000  0.87500  1.0000
  La  La65      1.0  0.09375  0.34375  0.15625  1.0000
  La  La66      1.0  0.09375  0.46875  0.03125  1.0000
  La  La67      1.0  0.09375  0.40625  0.09375  1.0000
  La  La68      1.0  0.09375  0.28125  0.21875  1.0000
  La  La69      1.0  0.03125  0.28125  0.15625  1.0000
  La  La70      1.0  0.03125  0.40625  0.03125  1.0000
  La  La71      1.0  0.03125  0.34375  0.21875  1.0000
  La  La72      1.0  0.03125  0.46875  0.09375  1.0000
  La  La73      1.0  0.15625  0.28125  0.03125  1.0000
  La  La74      1.0  0.15625  0.40625  0.15625  1.0000
  La  La75      1.0  0.15625  0.34375  0.09375  1.0000
  La  La76      1.0  0.15625  0.46875  0.21875  1.0000
  La  La77      1.0  0.21875  0.34375  0.03125  1.0000
  La  La78      1.0  0.21875  0.46875  0.15625  1.0000
  La  La79      1.0  0.21875  0.40625  0.21875  1.0000
  La  La80      1.0  0.21875  0.28125  0.09375  1.0000
  Zr  Zr65      1.0  0.09375  0.34375  0.03125  1.0000
  Zr  Zr66      1.0  0.09375  0.46875  0.15625  1.0000
  Zr  Zr67      1.0  0.09375  0.40625  0.21875  1.0000
  Zr  Zr68      1.0  0.09375  0.28125  0.09375  1.0000
  Zr  Zr69      1.0  0.03125  0.28125  0.03125  1.0000
  Zr  Zr70      1.0  0.03125  0.40625  0.15625  1.0000
  Zr  Zr71      1.0  0.03125  0.34375  0.09375  1.0000
  Zr  Zr72      1.0  0.03125  0.46875  0.21875  1.0000
  Zr  Zr73      1.0  0.15625  0.28125  0.15625  1.0000
  Zr  Zr74      1.0  0.15625  0.40625  0.03125  1.0000
  Zr  Zr75      1.0  0.15625  0.34375  0.21875  1.0000
  Zr  Zr76      1.0  0.15625  0.46875  0.09375  1.0000
  Zr  Zr77      1.0  0.21875  0.34375  0.15625  1.0000
  Zr  Zr78      1.0  0.21875  0.46875  0.03125  1.0000
  Zr  Zr79      1.0  0.21875  0.40625  0.09375  1.0000
  Zr  Zr80      1.0  0.21875  0.28125  0.21875  1.0000
  O   O225      1.0  0.12500  0.37500  0.04910  1.0000
  O   O226      1.0  0.12500  0.25000  0.17410  1.0000
  O   O227      1.0  0.12500  0.32590  0.00000  1.0000
  O   O228      1.0  0.12500  0.45090  0.12500  1.0000
  O   O229      1.0  0.12500  0.37500  0.20090  1.0000
  O   O230      1.0  0.12500  0.25000  0.07590  1.0000
  O   O231      1.0  0.12500  0.42410  0.00000  1.0000
  O   O232      1.0  0.12500  0.29910  0.12500  1.0000
  O   O233      1.0  0.06250  0.31250  0.01340  1.0000
  O   O234      1.0  0.06250  0.43750  0.13840  1.0000
  O   O235      1.0  0.06250  0.26340  0.06250  1.0000
  O   O236      1.0  0.06250  0.38840  0.18750  1.0000
  O   O237      1.0  0.06250  0.31250  0.11160  1.0000
  O   O238      1.0  0.06250  0.43750  0.23660  1.0000
  O   O239      1.0  0.06250  0.36160  0.06250  1.0000
  O   O240      1.0  0.06250  0.48660  0.18750  1.0000
  O   O241      1.0  0.18750  0.31250  0.13840  1.0000
  O   O242      1.0  0.18750  0.43750  0.01340  1.0000
  O   O243      1.0  0.18750  0.26340  0.18750  1.0000
  O   O244      1.0  0.18750  0.38840  0.06250  1.0000
  O   O245      1.0  0.18750  0.31250  0.23660  1.0000
  O   O246      1.0  0.18750  0.43750  0.11160  1.0000
  O   O247      1.0  0.18750  0.36160  0.18750  1.0000
  O   O248      1.0  0.18750  0.48660  0.06250  1.0000
  O   O249      1.0  0.00000  0.37500  0.17410  1.0000
  O   O250      1.0  0.00000  0.25000  0.04910  1.0000
  O   O251      1.0  0.00000  0.32590  0.12500  1.0000
  O   O252      1.0  0.00000  0.45090  0.00000  1.0000
  O   O253      1.0  0.00000  0.37500  0.07590  1.0000
  O   O254      1.0  0.00000  0.25000  0.20090  1.0000
  O   O255      1.0  0.00000  0.42410  0.12500  1.0000
  O   O256      1.0  0.00000  0.29910  0.00000  1.0000
  O   O257      1.0  0.07590  0.37500  0.00000  1.0000
  O   O258      1.0  0.07590  0.25000  0.12500  1.0000
  O   O259      1.0  0.01340  0.31250  0.06250  1.0000
  O   O260      1.0  0.01340  0.43750  0.18750  1.0000
  O   O261      1.0  0.13840  0.31250  0.18750  1.0000
  O   O262      1.0  0.13840  0.43750  0.06250  1.0000
  O   O263      1.0  0.20090  0.37500  0.12500  1.0000
  O   O264      1.0  0.20090  0.25000  0.00000  1.0000
  O   O265      1.0  0.17410  0.37500  0.00000  1.0000
  O   O266      1.0  0.17410  0.25000  0.12500  1.0000
  O   O267      1.0  0.11160  0.31250  0.06250  1.0000
  O   O268      1.0  0.11160  0.43750  0.18750  1.0000
  O   O269      1.0  0.23660  0.31250  0.18750  1.0000
  O   O270      1.0  0.23660  0.43750  0.06250  1.0000
  O   O271      1.0  0.04910  0.37500  0.12500  1.0000
  O   O272      1.0  0.04910  0.25000  0.00000  1.0000
  O   O273      1.0  0.12500  0.37500  0.12500  1.0000
  O   O274      1.0  0.12500  0.25000  0.00000  1.0000
  O   O275      1.0  0.06250  0.31250  0.18750  1.0000
  O   O276      1.0  0.06250  0.43750  0.06250  1.0000
  O   O277      1.0  0.18750  0.31250  0.06250  1.0000
  O   O278      1.0  0.18750  0.43750  0.18750  1.0000
  O   O279      1.0  0.00000  0.37500  0.00000  1.0000
  O   O280      1.0  0.00000  0.25000  0.12500  1.0000
  La  La81      1.0  0.09375  0.34375  0.40625  1.0000
  La  La82      1.0  0.09375  0.46875  0.28125  1.0000
  La  La83      1.0  0.09375  0.40625  0.34375  1.0000
  La  La84      1.0  0.09375  0.28125  0.46875  1.0000
  La  La85      1.0  0.03125  0.28125  0.40625  1.0000
  La  La86      1.0  0.03125  0.40625  0.28125  1.0000
  La  La87      1.0  0.03125  0.34375  0.46875  1.0000
  La  La88      1.0  0.03125  0.46875  0.34375  1.0000
  La  La89      1.0  0.15625  0.28125  0.28125  1.0000
  La  La90      1.0  0.15625  0.40625  0.40625  1.0000
  La  La91      1.0  0.15625  0.34375  0.34375  1.0000
  La  La92      1.0  0.15625  0.46875  0.46875  1.0000
  La  La93      1.0  0.21875  0.34375  0.28125  1.0000
  La  La94      1.0  0.21875  0.46875  0.40625  1.0000
  La  La95      1.0  0.21875  0.40625  0.46875  1.0000
  La  La96      1.0  0.21875  0.28125  0.34375  1.0000
  Zr  Zr81      1.0  0.09375  0.34375  0.28125  1.0000
  Zr  Zr82      1.0  0.09375  0.46875  0.40625  1.0000
  Zr  Zr83      1.0  0.09375  0.40625  0.46875  1.0000
  Zr  Zr84      1.0  0.09375  0.28125  0.34375  1.0000
  Zr  Zr85      1.0  0.03125  0.28125  0.28125  1.0000
  Zr  Zr86      1.0  0.03125  0.40625  0.40625  1.0000
  Zr  Zr87      1.0  0.03125  0.34375  0.34375  1.0000
  Zr  Zr88      1.0  0.03125  0.46875  0.46875  1.0000
  Zr  Zr89      1.0  0.15625  0.28125  0.40625  1.0000
  Zr  Zr90      1.0  0.15625  0.40625  0.28125  1.0000
  Zr  Zr91      1.0  0.15625  0.34375  0.46875  1.0000
  Zr  Zr92      1.0  0.15625  0.46875  0.34375  1.0000
  Zr  Zr93      1.0  0.21875  0.34375  0.40625  1.0000
  Zr  Zr94      1.0  0.21875  0.46875  0.28125  1.0000
  Zr  Zr95      1.0  0.21875  0.40625  0.34375  1.0000
  Zr  Zr96      1.0  0.21875  0.28125  0.46875  1.0000
  O   O281      1.0  0.12500  0.37500  0.29910  1.0000
  O   O282      1.0  0.12500  0.25000  0.42410  1.0000
  O   O283      1.0  0.12500  0.32590  0.25000  1.0000
  O   O284      1.0  0.12500  0.45090  0.37500  1.0000
  O   O285      1.0  0.12500  0.37500  0.45090  1.0000
  O   O286      1.0  0.12500  0.25000  0.32590  1.0000
  O   O287      1.0  0.12500  0.42410  0.25000  1.0000
  O   O288      1.0  0.12500  0.29910  0.37500  1.0000
  O   O289      1.0  0.06250  0.31250  0.26340  1.0000
  O   O290      1.0  0.06250  0.43750  0.38840  1.0000
  O   O291      1.0  0.06250  0.26340  0.31250  1.0000
  O   O292      1.0  0.06250  0.38840  0.43750  1.0000
  O   O293      1.0  0.06250  0.31250  0.36160  1.0000
  O   O294      1.0  0.06250  0.43750  0.48660  1.0000
  O   O295      1.0  0.06250  0.36160  0.31250  1.0000
  O   O296      1.0  0.06250  0.48660  0.43750  1.0000
  O   O297      1.0  0.18750  0.31250  0.38840  1.0000
  O   O298      1.0  0.18750  0.43750  0.26340  1.0000
  O   O299      1.0  0.18750  0.26340  0.43750  1.0000
  O   O300      1.0  0.18750  0.38840  0.31250  1.0000
  O   O301      1.0  0.18750  0.31250  0.48660  1.0000
  O   O302      1.0  0.18750  0.43750  0.36160  1.0000
  O   O303      1.0  0.18750  0.36160  0.43750  1.0000
  O   O304      1.0  0.18750  0.48660  0.31250  1.0000
  O   O305      1.0  0.00000  0.37500  0.42410  1.0000
  O   O306      1.0  0.00000  0.25000  0.29910  1.0000
  O   O307      1.0  0.00000  0.32590  0.37500  1.0000
  O   O308      1.0  0.00000  0.45090  0.25000  1.0000
  O   O309      1.0  0.00000  0.37500  0.32590  1.0000
  O   O310      1.0  0.00000  0.25000  0.45090  1.0000
  O   O311      1.0  0.00000  0.42410  0.37500  1.0000
  O   O312      1.0  0.00000  0.29910  0.25000  1.0000
  O   O313      1.0  0.07590  0.37500  0.25000  1.0000
  O   O314      1.0  0.07590  0.25000  0.37500  1.0000
  O   O315      1.0  0.01340  0.31250  0.31250  1.0000
  O   O316      1.0  0.01340  0.43750  0.43750  1.0000
  O   O317      1.0  0.13840  0.31250  0.43750  1.0000
  O   O318      1.0  0.13840  0.43750  0.31250  1.0000
  O   O319      1.0  0.20090  0.37500  0.37500  1.0000
  O   O320      1.0  0.20090  0.25000  0.25000  1.0000
  O   O321      1.0  0.17410  0.37500  0.25000  1.0000
  O   O322      1.0  0.17410  0.25000  0.37500  1.0000
  O   O323      1.0  0.11160  0.31250  0.31250  1.0000
  O   O324      1.0  0.11160  0.43750  0.43750  1.0000
  O   O325      1.0  0.23660  0.31250  0.43750  1.0000
  O   O326      1.0  0.23660  0.43750  0.31250  1.0000
  O   O327      1.0  0.04910  0.37500  0.37500  1.0000
  O   O328      1.0  0.04910  0.25000  0.25000  1.0000
  O   O329      1.0  0.12500  0.37500  0.37500  1.0000
  O   O330      1.0  0.12500  0.25000  0.25000  1.0000
  O   O331      1.0  0.06250  0.31250  0.43750  1.0000
  O   O332      1.0  0.06250  0.43750  0.31250  1.0000
  O   O333      1.0  0.18750  0.31250  0.31250  1.0000
  O   O334      1.0  0.18750  0.43750  0.43750  1.0000
  O   O335      1.0  0.00000  0.37500  0.25000  1.0000
  O   O336      1.0  0.00000  0.25000  0.37500  1.0000
  La  La97      1.0  0.09375  0.34375  0.65625  1.0000
  La  La98      1.0  0.09375  0.46875  0.53125  1.0000
  La  La99      1.0  0.09375  0.40625  0.59375  1.0000
  La  La100     1.0  0.09375  0.28125  0.71875  1.0000
  La  La101     1.0  0.03125  0.28125  0.65625  1.0000
  La  La102     1.0  0.03125  0.40625  0.53125  1.0000
  La  La103     1.0  0.03125  0.34375  0.71875  1.0000
  La  La104     1.0  0.03125  0.46875  0.59375  1.0000
  La  La105     1.0  0.15625  0.28125  0.53125  1.0000
  La  La106     1.0  0.15625  0.40625  0.65625  1.0000
  La  La107     1.0  0.15625  0.34375  0.59375  1.0000
  La  La108     1.0  0.15625  0.46875  0.71875  1.0000
  La  La109     1.0  0.21875  0.34375  0.53125  1.0000
  La  La110     1.0  0.21875  0.46875  0.65625  1.0000
  La  La111     1.0  0.21875  0.40625  0.71875  1.0000
  La  La112     1.0  0.21875  0.28125  0.59375  1.0000
  Zr  Zr97      1.0  0.09375  0.34375  0.53125  1.0000
  Zr  Zr98      1.0  0.09375  0.46875  0.65625  1.0000
  Zr  Zr99      1.0  0.09375  0.40625  0.71875  1.0000
  Zr  Zr100     1.0  0.09375  0.28125  0.59375  1.0000
  Zr  Zr101     1.0  0.03125  0.28125  0.53125  1.0000
  Zr  Zr102     1.0  0.03125  0.40625  0.65625  1.0000
  Zr  Zr103     1.0  0.03125  0.34375  0.59375  1.0000
  Zr  Zr104     1.0  0.03125  0.46875  0.71875  1.0000
  Zr  Zr105     1.0  0.15625  0.28125  0.65625  1.0000
  Zr  Zr106     1.0  0.15625  0.40625  0.53125  1.0000
  Zr  Zr107     1.0  0.15625  0.34375  0.71875  1.0000
  Zr  Zr108     1.0  0.15625  0.46875  0.59375  1.0000
  Zr  Zr109     1.0  0.21875  0.34375  0.65625  1.0000
  Zr  Zr110     1.0  0.21875  0.46875  0.53125  1.0000
  Zr  Zr111     1.0  0.21875  0.40625  0.59375  1.0000
  Zr  Zr112     1.0  0.21875  0.28125  0.71875  1.0000
  O   O337      1.0  0.12500  0.37500  0.54910  1.0000
  O   O338      1.0  0.12500  0.25000  0.67410  1.0000
  O   O339      1.0  0.12500  0.32590  0.50000  1.0000
  O   O340      1.0  0.12500  0.45090  0.62500  1.0000
  O   O341      1.0  0.12500  0.37500  0.70090  1.0000
  O   O342      1.0  0.12500  0.25000  0.57590  1.0000
  O   O343      1.0  0.12500  0.42410  0.50000  1.0000
  O   O344      1.0  0.12500  0.29910  0.62500  1.0000
  O   O345      1.0  0.06250  0.31250  0.51340  1.0000
  O   O346      1.0  0.06250  0.43750  0.63840  1.0000
  O   O347      1.0  0.06250  0.26340  0.56250  1.0000
  O   O348      1.0  0.06250  0.38840  0.68750  1.0000
  O   O349      1.0  0.06250  0.31250  0.61160  1.0000
  O   O350      1.0  0.06250  0.43750  0.73660  1.0000
  O   O351      1.0  0.06250  0.36160  0.56250  1.0000
  O   O352      1.0  0.06250  0.48660  0.68750  1.0000
  O   O353      1.0  0.18750  0.31250  0.63840  1.0000
  O   O354      1.0  0.18750  0.43750  0.51340  1.0000
  O   O355      1.0  0.18750  0.26340  0.68750  1.0000
  O   O356      1.0  0.18750  0.38840  0.56250  1.0000
  O   O357      1.0  0.18750  0.31250  0.73660  1.0000
  O   O358      1.0  0.18750  0.43750  0.61160  1.0000
  O   O359      1.0  0.18750  0.36160  0.68750  1.0000
  O   O360      1.0  0.18750  0.48660  0.56250  1.0000
  O   O361      1.0  0.00000  0.37500  0.67410  1.0000
  O   O362      1.0  0.00000  0.25000  0.54910  1.0000
  O   O363      1.0  0.00000  0.32590  0.62500  1.0000
  O   O364      1.0  0.00000  0.45090  0.50000  1.0000
  O   O365      1.0  0.00000  0.37500  0.57590  1.0000
  O   O366      1.0  0.00000  0.25000  0.70090  1.0000
  O   O367      1.0  0.00000  0.42410  0.62500  1.0000
  O   O368      1.0  0.00000  0.29910  0.50000  1.0000
  O   O369      1.0  0.07590  0.37500  0.50000  1.0000
  O   O370      1.0  0.07590  0.25000  0.62500  1.0000
  O   O371      1.0  0.01340  0.31250  0.56250  1.0000
  O   O372      1.0  0.01340  0.43750  0.68750  1.0000
  O   O373      1.0  0.13840  0.31250  0.68750  1.0000
  O   O374      1.0  0.13840  0.43750  0.56250  1.0000
  O   O375      1.0  0.20090  0.37500  0.62500  1.0000
  O   O376      1.0  0.20090  0.25000  0.50000  1.0000
  O   O377      1.0  0.17410  0.37500  0.50000  1.0000
  O   O378      1.0  0.17410  0.25000  0.62500  1.0000
  O   O379      1.0  0.11160  0.31250  0.56250  1.0000
  O   O380      1.0  0.11160  0.43750  0.68750  1.0000
  O   O381      1.0  0.23660  0.31250  0.68750  1.0000
  O   O382      1.0  0.23660  0.43750  0.56250  1.0000
  O   O383      1.0  0.04910  0.37500  0.62500  1.0000
  O   O384      1.0  0.04910  0.25000  0.50000  1.0000
  O   O385      1.0  0.12500  0.37500  0.62500  1.0000
  O   O386      1.0  0.12500  0.25000  0.50000  1.0000
  O   O387      1.0  0.06250  0.31250  0.68750  1.0000
  O   O388      1.0  0.06250  0.43750  0.56250  1.0000
  O   O389      1.0  0.18750  0.31250  0.56250  1.0000
  O   O390      1.0  0.18750  0.43750  0.68750  1.0000
  O   O391      1.0  0.00000  0.37500  0.50000  1.0000
  O   O392      1.0  0.00000  0.25000  0.62500  1.0000
  La  La113     1.0  0.09375  0.34375  0.90625  1.0000
  La  La114     1.0  0.09375  0.46875  0.78125  1.0000
  La  La115     1.0  0.09375  0.40625  0.84375  1.0000
  La  La116     1.0  0.09375  0.28125  0.96875  1.0000
  La  La117     1.0  0.03125  0.28125  0.90625  1.0000
  La  La118     1.0  0.03125  0.40625  0.78125  1.0000
  La  La119     1.0  0.03125  0.34375  0.96875  1.0000
  La  La120     1.0  0.03125  0.46875  0.84375  1.0000
  La  La121     1.0  0.15625  0.28125  0.78125  1.0000
  La  La122     1.0  0.15625  0.40625  0.90625  1.0000
  La  La123     1.0  0.15625  0.34375  0.84375  1.0000
  La  La124     1.0  0.15625  0.46875  0.96875  1.0000
  La  La125     1.0  0.21875  0.34375  0.78125  1.0000
  La  La126     1.0  0.21875  0.46875  0.90625  1.0000
  La  La127     1.0  0.21875  0.40625  0.96875  1.0000
  La  La128     1.0  0.21875  0.28125  0.84375  1.0000
  Zr  Zr113     1.0  0.09375  0.34375  0.78125  1.0000
  Zr  Zr114     1.0  0.09375  0.46875  0.90625  1.0000
  Zr  Zr115     1.0  0.09375  0.40625  0.96875  1.0000
  Zr  Zr116     1.0  0.09375  0.28125  0.84375  1.0000
  Zr  Zr117     1.0  0.03125  0.28125  0.78125  1.0000
  Zr  Zr118     1.0  0.03125  0.40625  0.90625  1.0000
  Zr  Zr119     1.0  0.03125  0.34375  0.84375  1.0000
  Zr  Zr120     1.0  0.03125  0.46875  0.96875  1.0000
  Zr  Zr121     1.0  0.15625  0.28125  0.90625  1.0000
  Zr  Zr122     1.0  0.15625  0.40625  0.78125  1.0000
  Zr  Zr123     1.0  0.15625  0.34375  0.96875  1.0000
  Zr  Zr124     1.0  0.15625  0.46875  0.84375  1.0000
  Zr  Zr125     1.0  0.21875  0.34375  0.90625  1.0000
  Zr  Zr126     1.0  0.21875  0.46875  0.78125  1.0000
  Zr  Zr127     1.0  0.21875  0.40625  0.84375  1.0000
  Zr  Zr128     1.0  0.21875  0.28125  0.96875  1.0000
  O   O393      1.0  0.12500  0.37500  0.79910  1.0000
  O   O394      1.0  0.12500  0.25000  0.92410  1.0000
  O   O395      1.0  0.12500  0.32590  0.75000  1.0000
  O   O396      1.0  0.12500  0.45090  0.87500  1.0000
  O   O397      1.0  0.12500  0.37500  0.95090  1.0000
  O   O398      1.0  0.12500  0.25000  0.82590  1.0000
  O   O399      1.0  0.12500  0.42410  0.75000  1.0000
  O   O400      1.0  0.12500  0.29910  0.87500  1.0000
  O   O401      1.0  0.06250  0.31250  0.76340  1.0000
  O   O402      1.0  0.06250  0.43750  0.88840  1.0000
  O   O403      1.0  0.06250  0.26340  0.81250  1.0000
  O   O404      1.0  0.06250  0.38840  0.93750  1.0000
  O   O405      1.0  0.06250  0.31250  0.86160  1.0000
  O   O406      1.0  0.06250  0.43750  0.98660  1.0000
  O   O407      1.0  0.06250  0.36160  0.81250  1.0000
  O   O408      1.0  0.06250  0.48660  0.93750  1.0000
  O   O409      1.0  0.18750  0.31250  0.88840  1.0000
  O   O410      1.0  0.18750  0.43750  0.76340  1.0000
  O   O411      1.0  0.18750  0.26340  0.93750  1.0000
  O   O412      1.0  0.18750  0.38840  0.81250  1.0000
  O   O413      1.0  0.18750  0.31250  0.98660  1.0000
  O   O414      1.0  0.18750  0.43750  0.86160  1.0000
  O   O415      1.0  0.18750  0.36160  0.93750  1.0000
  O   O416      1.0  0.18750  0.48660  0.81250  1.0000
  O   O417      1.0  0.00000  0.37500  0.92410  1.0000
  O   O418      1.0  0.00000  0.25000  0.79910  1.0000
  O   O419      1.0  0.00000  0.32590  0.87500  1.0000
  O   O420      1.0  0.00000  0.45090  0.75000  1.0000
  O   O421      1.0  0.00000  0.37500  0.82590  1.0000
  O   O422      1.0  0.00000  0.25000  0.95090  1.0000
  O   O423      1.0  0.00000  0.42410  0.87500  1.0000
  O   O424      1.0  0.00000  0.29910  0.75000  1.0000
  O   O425      1.0  0.07590  0.37500  0.75000  1.0000
  O   O426      1.0  0.07590  0.25000  0.87500  1.0000
  O   O427      1.0  0.01340  0.31250  0.81250  1.0000
  O   O428      1.0  0.01340  0.43750  0.93750  1.0000
  O   O429      1.0  0.13840  0.31250  0.93750  1.0000
  O   O430      1.0  0.13840  0.43750  0.81250  1.0000
  O   O431      1.0  0.20090  0.37500  0.87500  1.0000
  O   O432      1.0  0.20090  0.25000  0.75000  1.0000
  O   O433      1.0  0.17410  0.37500  0.75000  1.0000
  O   O434      1.0  0.17410  0.25000  0.87500  1.0000
  O   O435      1.0  0.11160  0.31250  0.81250  1.0000
  O   O436      1.0  0.11160  0.43750  0.93750  1.0000
  O   O437      1.0  0.23660  0.31250  0.93750  1.0000
  O   O438      1.0  0.23660  0.43750  0.81250  1.0000
  O   O439      1.0  0.04910  0.37500  0.87500  1.0000
  O   O440      1.0  0.04910  0.25000  0.75000  1.0000
  O   O441      1.0  0.12500  0.37500  0.87500  1.0000
  O   O442      1.0  0.12500  0.25000  0.75000  1.0000
  O   O443      1.0  0.06250  0.31250  0.93750  1.0000
  O   O444      1.0  0.06250  0.43750  0.81250  1.0000
  O   O445      1.0  0.18750  0.31250  0.81250  1.0000
  O   O446      1.0  0.18750  0.43750  0.93750  1.0000
  O   O447      1.0  0.00000  0.37500  0.75000  1.0000
  O   O448      1.0  0.00000  0.25000  0.87500  1.0000
  La  La129     1.0  0.09375  0.59375  0.15625  1.0000
  La  La130     1.0  0.09375  0.71875  0.03125  1.0000
  La  La131     1.0  0.09375  0.65625  0.09375  1.0000
  La  La132     1.0  0.09375  0.53125  0.21875  1.0000
  La  La133     1.0  0.03125  0.53125  0.15625  1.0000
  La  La134     1.0  0.03125  0.65625  0.03125  1.0000
  La  La135     1.0  0.03125  0.59375  0.21875  1.0000
  La  La136     1.0  0.03125  0.71875  0.09375  1.0000
  La  La137     1.0  0.15625  0.53125  0.03125  1.0000
  La  La138     1.0  0.15625  0.65625  0.15625  1.0000
  La  La139     1.0  0.15625  0.59375  0.09375  1.0000
  La  La140     1.0  0.15625  0.71875  0.21875  1.0000
  La  La141     1.0  0.21875  0.59375  0.03125  1.0000
  La  La142     1.0  0.21875  0.71875  0.15625  1.0000
  La  La143     1.0  0.21875  0.65625  0.21875  1.0000
  La  La144     1.0  0.21875  0.53125  0.09375  1.0000
  Zr  Zr129     1.0  0.09375  0.59375  0.03125  1.0000
  Zr  Zr130     1.0  0.09375  0.71875  0.15625  1.0000
  Zr  Zr131     1.0  0.09375  0.65625  0.21875  1.0000
  Zr  Zr132     1.0  0.09375  0.53125  0.09375  1.0000
  Zr  Zr133     1.0  0.03125  0.53125  0.03125  1.0000
  Zr  Zr134     1.0  0.03125  0.65625  0.15625  1.0000
  Zr  Zr135     1.0  0.03125  0.59375  0.09375  1.0000
  Zr  Zr136     1.0  0.03125  0.71875  0.21875  1.0000
  Zr  Zr137     1.0  0.15625  0.53125  0.15625  1.0000
  Zr  Zr138     1.0  0.15625  0.65625  0.03125  1.0000
  Zr  Zr139     1.0  0.15625  0.59375  0.21875  1.0000
  Zr  Zr140     1.0  0.15625  0.71875  0.09375  1.0000
  Zr  Zr141     1.0  0.21875  0.59375  0.15625  1.0000
  Zr  Zr142     1.0  0.21875  0.71875  0.03125  1.0000
  Zr  Zr143     1.0  0.21875  0.65625  0.09375  1.0000
  Zr  Zr144     1.0  0.21875  0.53125  0.21875  1.0000
  O   O449      1.0  0.12500  0.62500  0.04910  1.0000
  O   O450      1.0  0.12500  0.50000  0.17410  1.0000
  O   O451      1.0  0.12500  0.57590  0.00000  1.0000
  O   O452      1.0  0.12500  0.70090  0.12500  1.0000
  O   O453      1.0  0.12500  0.62500  0.20090  1.0000
  O   O454      1.0  0.12500  0.50000  0.07590  1.0000
  O   O455      1.0  0.12500  0.67410  0.00000  1.0000
  O   O456      1.0  0.12500  0.54910  0.12500  1.0000
  O   O457      1.0  0.06250  0.56250  0.01340  1.0000
  O   O458      1.0  0.06250  0.68750  0.13840  1.0000
  O   O459      1.0  0.06250  0.51340  0.06250  1.0000
  O   O460      1.0  0.06250  0.63840  0.18750  1.0000
  O   O461      1.0  0.06250  0.56250  0.11160  1.0000
  O   O462      1.0  0.06250  0.68750  0.23660  1.0000
  O   O463      1.0  0.06250  0.61160  0.06250  1.0000
  O   O464      1.0  0.06250  0.73660  0.18750  1.0000
  O   O465      1.0  0.18750  0.56250  0.13840  1.0000
  O   O466      1.0  0.18750  0.68750  0.01340  1.0000
  O   O467      1.0  0.18750  0.51340  0.18750  1.0000
  O   O468      1.0  0.18750  0.63840  0.06250  1.0000
  O   O469      1.0  0.18750  0.56250  0.23660  1.0000
  O   O470      1.0  0.18750  0.68750  0.11160  1.0000
  O   O471      1.0  0.18750  0.61160  0.18750  1.0000
  O   O472      1.0  0.18750  0.73660  0.06250  1.0000
  O   O473      1.0  0.00000  0.62500  0.17410  1.0000
  O   O474      1.0  0.00000  0.50000  0.04910  1.0000
  O   O475      1.0  0.00000  0.57590  0.12500  1.0000
  O   O476      1.0  0.00000  0.70090  0.00000  1.0000
  O   O477      1.0  0.00000  0.62500  0.07590  1.0000
  O   O478      1.0  0.00000  0.50000  0.20090  1.0000
  O   O479      1.0  0.00000  0.67410  0.12500  1.0000
  O   O480      1.0  0.00000  0.54910  0.00000  1.0000
  O   O481      1.0  0.07590  0.62500  0.00000  1.0000
  O   O482      1.0  0.07590  0.50000  0.12500  1.0000
  O   O483      1.0  0.01340  0.56250  0.06250  1.0000
  O   O484      1.0  0.01340  0.68750  0.18750  1.0000
  O   O485      1.0  0.13840  0.56250  0.18750  1.0000
  O   O486      1.0  0.13840  0.68750  0.06250  1.0000
  O   O487      1.0  0.20090  0.62500  0.12500  1.0000
  O   O488      1.0  0.20090  0.50000  0.00000  1.0000
  O   O489      1.0  0.17410  0.62500  0.00000  1.0000
  O   O490      1.0  0.17410  0.50000  0.12500  1.0000
  O   O491      1.0  0.11160  0.56250  0.06250  1.0000
  O   O492      1.0  0.11160  0.68750  0.18750  1.0000
  O   O493      1.0  0.23660  0.56250  0.18750  1.0000
  O   O494      1.0  0.23660  0.68750  0.06250  1.0000
  O   O495      1.0  0.04910  0.62500  0.12500  1.0000
  O   O496      1.0  0.04910  0.50000  0.00000  1.0000
  O   O497      1.0  0.12500  0.62500  0.12500  1.0000
  O   O498      1.0  0.12500  0.50000  0.00000  1.0000
  O   O499      1.0  0.06250  0.56250  0.18750  1.0000
  O   O500      1.0  0.06250  0.68750  0.06250  1.0000
  O   O501      1.0  0.18750  0.56250  0.06250  1.0000
  O   O502      1.0  0.18750  0.68750  0.18750  1.0000
  O   O503      1.0  0.00000  0.62500  0.00000  1.0000
  O   O504      1.0  0.00000  0.50000  0.12500  1.0000
  La  La145     1.0  0.09375  0.59375  0.40625  1.0000
  La  La146     1.0  0.09375  0.71875  0.28125  1.0000
  La  La147     1.0  0.09375  0.65625  0.34375  1.0000
  La  La148     1.0  0.09375  0.53125  0.46875  1.0000
  La  La149     1.0  0.03125  0.53125  0.40625  1.0000
  La  La150     1.0  0.03125  0.65625  0.28125  1.0000
  La  La151     1.0  0.03125  0.59375  0.46875  1.0000
  La  La152     1.0  0.03125  0.71875  0.34375  1.0000
  La  La153     1.0  0.15625  0.53125  0.28125  1.0000
  La  La154     1.0  0.15625  0.65625  0.40625  1.0000
  La  La155     1.0  0.15625  0.59375  0.34375  1.0000
  La  La156     1.0  0.15625  0.71875  0.46875  1.0000
  La  La157     1.0  0.21875  0.59375  0.28125  1.0000
  La  La158     1.0  0.21875  0.71875  0.40625  1.0000
  La  La159     1.0  0.21875  0.65625  0.46875  1.0000
  La  La160     1.0  0.21875  0.53125  0.34375  1.0000
  Zr  Zr145     1.0  0.09375  0.59375  0.28125  1.0000
  Zr  Zr146     1.0  0.09375  0.71875  0.40625  1.0000
  Zr  Zr147     1.0  0.09375  0.65625  0.46875  1.0000
  Zr  Zr148     1.0  0.09375  0.53125  0.34375  1.0000
  Zr  Zr149     1.0  0.03125  0.53125  0.28125  1.0000
  Zr  Zr150     1.0  0.03125  0.65625  0.40625  1.0000
  Zr  Zr151     1.0  0.03125  0.59375  0.34375  1.0000
  Zr  Zr152     1.0  0.03125  0.71875  0.46875  1.0000
  Zr  Zr153     1.0  0.15625  0.53125  0.40625  1.0000
  Zr  Zr154     1.0  0.15625  0.65625  0.28125  1.0000
  Zr  Zr155     1.0  0.15625  0.59375  0.46875  1.0000
  Zr  Zr156     1.0  0.15625  0.71875  0.34375  1.0000
  Zr  Zr157     1.0  0.21875  0.59375  0.40625  1.0000
  Zr  Zr158     1.0  0.21875  0.71875  0.28125  1.0000
  Zr  Zr159     1.0  0.21875  0.65625  0.34375  1.0000
  Zr  Zr160     1.0  0.21875  0.53125  0.46875  1.0000
  O   O505      1.0  0.12500  0.62500  0.29910  1.0000
  O   O506      1.0  0.12500  0.50000  0.42410  1.0000
  O   O507      1.0  0.12500  0.57590  0.25000  1.0000
  O   O508      1.0  0.12500  0.70090  0.37500  1.0000
  O   O509      1.0  0.12500  0.62500  0.45090  1.0000
  O   O510      1.0  0.12500  0.50000  0.32590  1.0000
  O   O511      1.0  0.12500  0.67410  0.25000  1.0000
  O   O512      1.0  0.12500  0.54910  0.37500  1.0000
  O   O513      1.0  0.06250  0.56250  0.26340  1.0000
  O   O514      1.0  0.06250  0.68750  0.38840  1.0000
  O   O515      1.0  0.06250  0.51340  0.31250  1.0000
  O   O516      1.0  0.06250  0.63840  0.43750  1.0000
  O   O517      1.0  0.06250  0.56250  0.36160  1.0000
  O   O518      1.0  0.06250  0.68750  0.48660  1.0000
  O   O519      1.0  0.06250  0.61160  0.31250  1.0000
  O   O520      1.0  0.06250  0.73660  0.43750  1.0000
  O   O521      1.0  0.18750  0.56250  0.38840  1.0000
  O   O522      1.0  0.18750  0.68750  0.26340  1.0000
  O   O523      1.0  0.18750  0.51340  0.43750  1.0000
  O   O524      1.0  0.18750  0.63840  0.31250  1.0000
  O   O525      1.0  0.18750  0.56250  0.48660  1.0000
  O   O526      1.0  0.18750  0.68750  0.36160  1.0000
  O   O527      1.0  0.18750  0.61160  0.43750  1.0000
  O   O528      1.0  0.18750  0.73660  0.31250  1.0000
  O   O529      1.0  0.00000  0.62500  0.42410  1.0000
  O   O530      1.0  0.00000  0.50000  0.29910  1.0000
  O   O531      1.0  0.00000  0.57590  0.37500  1.0000
  O   O532      1.0  0.00000  0.70090  0.25000  1.0000
  O   O533      1.0  0.00000  0.62500  0.32590  1.0000
  O   O534      1.0  0.00000  0.50000  0.45090  1.0000
  O   O535      1.0  0.00000  0.67410  0.37500  1.0000
  O   O536      1.0  0.00000  0.54910  0.25000  1.0000
  O   O537      1.0  0.07590  0.62500  0.25000  1.0000
  O   O538      1.0  0.07590  0.50000  0.37500  1.0000
  O   O539      1.0  0.01340  0.56250  0.31250  1.0000
  O   O540      1.0  0.01340  0.68750  0.43750  1.0000
  O   O541      1.0  0.13840  0.56250  0.43750  1.0000
  O   O542      1.0  0.13840  0.68750  0.31250  1.0000
  O   O543      1.0  0.20090  0.62500  0.37500  1.0000
  O   O544      1.0  0.20090  0.50000  0.25000  1.0000
  O   O545      1.0  0.17410  0.62500  0.25000  1.0000
  O   O546      1.0  0.17410  0.50000  0.37500  1.0000
  O   O547      1.0  0.11160  0.56250  0.31250  1.0000
  O   O548      1.0  0.11160  0.68750  0.43750  1.0000
  O   O549      1.0  0.23660  0.56250  0.43750  1.0000
  O   O550      1.0  0.23660  0.68750  0.31250  1.0000
  O   O551      1.0  0.04910  0.62500  0.37500  1.0000
  O   O552      1.0  0.04910  0.50000  0.25000  1.0000
  O   O553      1.0  0.12500  0.62500  0.37500  1.0000
  O   O554      1.0  0.12500  0.50000  0.25000  1.0000
  O   O555      1.0  0.06250  0.56250  0.43750  1.0000
  O   O556      1.0  0.06250  0.68750  0.31250  1.0000
  O   O557      1.0  0.18750  0.56250  0.31250  1.0000
  O   O558      1.0  0.18750  0.68750  0.43750  1.0000
  O   O559      1.0  0.00000  0.62500  0.25000  1.0000
  O   O560      1.0  0.00000  0.50000  0.37500  1.0000
  La  La161     1.0  0.09375  0.59375  0.65625  1.0000
  La  La162     1.0  0.09375  0.71875  0.53125  1.0000
  La  La163     1.0  0.09375  0.65625  0.59375  1.0000
  La  La164     1.0  0.09375  0.53125  0.71875  1.0000
  La  La165     1.0  0.03125  0.53125  0.65625  1.0000
  La  La166     1.0  0.03125  0.65625  0.53125  1.0000
  La  La167     1.0  0.03125  0.59375  0.71875  1.0000
  La  La168     1.0  0.03125  0.71875  0.59375  1.0000
  La  La169     1.0  0.15625  0.53125  0.53125  1.0000
  La  La170     1.0  0.15625  0.65625  0.65625  1.0000
  La  La171     1.0  0.15625  0.59375  0.59375  1.0000
  La  La172     1.0  0.15625  0.71875  0.71875  1.0000
  La  La173     1.0  0.21875  0.59375  0.53125  1.0000
  La  La174     1.0  0.21875  0.71875  0.65625  1.0000
  La  La175     1.0  0.21875  0.65625  0.71875  1.0000
  La  La176     1.0  0.21875  0.53125  0.59375  1.0000
  Zr  Zr161     1.0  0.09375  0.59375  0.53125  1.0000
  Zr  Zr162     1.0  0.09375  0.71875  0.65625  1.0000
  Zr  Zr163     1.0  0.09375  0.65625  0.71875  1.0000
  Zr  Zr164     1.0  0.09375  0.53125  0.59375  1.0000
  Zr  Zr165     1.0  0.03125  0.53125  0.53125  1.0000
  Zr  Zr166     1.0  0.03125  0.65625  0.65625  1.0000
  Zr  Zr167     1.0  0.03125  0.59375  0.59375  1.0000
  Zr  Zr168     1.0  0.03125  0.71875  0.71875  1.0000
  Zr  Zr169     1.0  0.15625  0.53125  0.65625  1.0000
  Zr  Zr170     1.0  0.15625  0.65625  0.53125  1.0000
  Zr  Zr171     1.0  0.15625  0.59375  0.71875  1.0000
  Zr  Zr172     1.0  0.15625  0.71875  0.59375  1.0000
  Zr  Zr173     1.0  0.21875  0.59375  0.65625  1.0000
  Zr  Zr174     1.0  0.21875  0.71875  0.53125  1.0000
  Zr  Zr175     1.0  0.21875  0.65625  0.59375  1.0000
  Zr  Zr176     1.0  0.21875  0.53125  0.71875  1.0000
  O   O561      1.0  0.12500  0.62500  0.54910  1.0000
  O   O562      1.0  0.12500  0.50000  0.67410  1.0000
  O   O563      1.0  0.12500  0.57590  0.50000  1.0000
  O   O564      1.0  0.12500  0.70090  0.62500  1.0000
  O   O565      1.0  0.12500  0.62500  0.70090  1.0000
  O   O566      1.0  0.12500  0.50000  0.57590  1.0000
  O   O567      1.0  0.12500  0.67410  0.50000  1.0000
  O   O568      1.0  0.12500  0.54910  0.62500  1.0000
  O   O569      1.0  0.06250  0.56250  0.51340  1.0000
  O   O570      1.0  0.06250  0.68750  0.63840  1.0000
  O   O571      1.0  0.06250  0.51340  0.56250  1.0000
  O   O572      1.0  0.06250  0.63840  0.68750  1.0000
  O   O573      1.0  0.06250  0.56250  0.61160  1.0000
  O   O574      1.0  0.06250  0.68750  0.73660  1.0000
  O   O575      1.0  0.06250  0.61160  0.56250  1.0000
  O   O576      1.0  0.06250  0.73660  0.68750  1.0000
  O   O577      1.0  0.18750  0.56250  0.63840  1.0000
  O   O578      1.0  0.18750  0.68750  0.51340  1.0000
  O   O579      1.0  0.18750  0.51340  0.68750  1.0000
  O   O580      1.0  0.18750  0.63840  0.56250  1.0000
  O   O581      1.0  0.18750  0.56250  0.73660  1.0000
  O   O582      1.0  0.18750  0.68750  0.61160  1.0000
  O   O583      1.0  0.18750  0.61160  0.68750  1.0000
  O   O584      1.0  0.18750  0.73660  0.56250  1.0000
  O   O585      1.0  0.00000  0.62500  0.67410  1.0000
  O   O586      1.0  0.00000  0.50000  0.54910  1.0000
  O   O587      1.0  0.00000  0.57590  0.62500  1.0000
  O   O588      1.0  0.00000  0.70090  0.50000  1.0000
  O   O589      1.0  0.00000  0.62500  0.57590  1.0000
  O   O590      1.0  0.00000  0.50000  0.70090  1.0000
  O   O591      1.0  0.00000  0.67410  0.62500  1.0000
  O   O592      1.0  0.00000  0.54910  0.50000  1.0000
  O   O593      1.0  0.07590  0.62500  0.50000  1.0000
  O   O594      1.0  0.07590  0.50000  0.62500  1.0000
  O   O595      1.0  0.01340  0.56250  0.56250  1.0000
  O   O596      1.0  0.01340  0.68750  0.68750  1.0000
  O   O597      1.0  0.13840  0.56250  0.68750  1.0000
  O   O598      1.0  0.13840  0.68750  0.56250  1.0000
  O   O599      1.0  0.20090  0.62500  0.62500  1.0000
  O   O600      1.0  0.20090  0.50000  0.50000  1.0000
  O   O601      1.0  0.17410  0.62500  0.50000  1.0000
  O   O602      1.0  0.17410  0.50000  0.62500  1.0000
  O   O603      1.0  0.11160  0.56250  0.56250  1.0000
  O   O604      1.0  0.11160  0.68750  0.68750  1.0000
  O   O605      1.0  0.23660  0.56250  0.68750  1.0000
  O   O606      1.0  0.23660  0.68750  0.56250  1.0000
  O   O607      1.0  0.04910  0.62500  0.62500  1.0000
  O   O608      1.0  0.04910  0.50000  0.50000  1.0000
  O   O609      1.0  0.12500  0.62500  0.62500  1.0000
  O   O610      1.0  0.12500  0.50000  0.50000  1.0000
  O   O611      1.0  0.06250  0.56250  0.68750  1.0000
  O   O612      1.0  0.06250  0.68750  0.56250  1.0000
  O   O613      1.0  0.18750  0.56250  0.56250  1.0000
  O   O614      1.0  0.18750  0.68750  0.68750  1.0000
  O   O615      1.0  0.00000  0.62500  0.50000  1.0000
  O   O616      1.0  0.00000  0.50000  0.62500  1.0000
  La  La177     1.0  0.09375  0.59375  0.90625  1.0000
  La  La178     1.0  0.09375  0.71875  0.78125  1.0000
  La  La179     1.0  0.09375  0.65625  0.84375  1.0000
  La  La180     1.0  0.09375  0.53125  0.96875  1.0000
  La  La181     1.0  0.03125  0.53125  0.90625  1.0000
  La  La182     1.0  0.03125  0.65625  0.78125  1.0000
  La  La183     1.0  0.03125  0.59375  0.96875  1.0000
  La  La184     1.0  0.03125  0.71875  0.84375  1.0000
  La  La185     1.0  0.15625  0.53125  0.78125  1.0000
  La  La186     1.0  0.15625  0.65625  0.90625  1.0000
  La  La187     1.0  0.15625  0.59375  0.84375  1.0000
  La  La188     1.0  0.15625  0.71875  0.96875  1.0000
  La  La189     1.0  0.21875  0.59375  0.78125  1.0000
  La  La190     1.0  0.21875  0.71875  0.90625  1.0000
  La  La191     1.0  0.21875  0.65625  0.96875  1.0000
  La  La192     1.0  0.21875  0.53125  0.84375  1.0000
  Zr  Zr177     1.0  0.09375  0.59375  0.78125  1.0000
  Zr  Zr178     1.0  0.09375  0.71875  0.90625  1.0000
  Zr  Zr179     1.0  0.09375  0.65625  0.96875  1.0000
  Zr  Zr180     1.0  0.09375  0.53125  0.84375  1.0000
  Zr  Zr181     1.0  0.03125  0.53125  0.78125  1.0000
  Zr  Zr182     1.0  0.03125  0.65625  0.90625  1.0000
  Zr  Zr183     1.0  0.03125  0.59375  0.84375  1.0000
  Zr  Zr184     1.0  0.03125  0.71875  0.96875  1.0000
  Zr  Zr185     1.0  0.15625  0.53125  0.90625  1.0000
  Zr  Zr186     1.0  0.15625  0.65625  0.78125  1.0000
  Zr  Zr187     1.0  0.15625  0.59375  0.96875  1.0000
  Zr  Zr188     1.0  0.15625  0.71875  0.84375  1.0000
  Zr  Zr189     1.0  0.21875  0.59375  0.90625  1.0000
  Zr  Zr190     1.0  0.21875  0.71875  0.78125  1.0000
  Zr  Zr191     1.0  0.21875  0.65625  0.84375  1.0000
  Zr  Zr192     1.0  0.21875  0.53125  0.96875  1.0000
  O   O617      1.0  0.12500  0.62500  0.79910  1.0000
  O   O618      1.0  0.12500  0.50000  0.92410  1.0000
  O   O619      1.0  0.12500  0.57590  0.75000  1.0000
  O   O620      1.0  0.12500  0.70090  0.87500  1.0000
  O   O621      1.0  0.12500  0.62500  0.95090  1.0000
  O   O622      1.0  0.12500  0.50000  0.82590  1.0000
  O   O623      1.0  0.12500  0.67410  0.75000  1.0000
  O   O624      1.0  0.12500  0.54910  0.87500  1.0000
  O   O625      1.0  0.06250  0.56250  0.76340  1.0000
  O   O626      1.0  0.06250  0.68750  0.88840  1.0000
  O   O627      1.0  0.06250  0.51340  0.81250  1.0000
  O   O628      1.0  0.06250  0.63840  0.93750  1.0000
  O   O629      1.0  0.06250  0.56250  0.86160  1.0000
  O   O630      1.0  0.06250  0.68750  0.98660  1.0000
  O   O631      1.0  0.06250  0.61160  0.81250  1.0000
  O   O632      1.0  0.06250  0.73660  0.93750  1.0000
  O   O633      1.0  0.18750  0.56250  0.88840  1.0000
  O   O634      1.0  0.18750  0.68750  0.76340  1.0000
  O   O635      1.0  0.18750  0.51340  0.93750  1.0000
  O   O636      1.0  0.18750  0.63840  0.81250  1.0000
  O   O637      1.0  0.18750  0.56250  0.98660  1.0000
  O   O638      1.0  0.18750  0.68750  0.86160  1.0000
  O   O639      1.0  0.18750  0.61160  0.93750  1.0000
  O   O640      1.0  0.18750  0.73660  0.81250  1.0000
  O   O641      1.0  0.00000  0.62500  0.92410  1.0000
  O   O642      1.0  0.00000  0.50000  0.79910  1.0000
  O   O643      1.0  0.00000  0.57590  0.87500  1.0000
  O   O644      1.0  0.00000  0.70090  0.75000  1.0000
  O   O645      1.0  0.00000  0.62500  0.82590  1.0000
  O   O646      1.0  0.00000  0.50000  0.95090  1.0000
  O   O647      1.0  0.00000  0.67410  0.87500  1.0000
  O   O648      1.0  0.00000  0.54910  0.75000  1.0000
  O   O649      1.0  0.07590  0.62500  0.75000  1.0000
  O   O650      1.0  0.07590  0.50000  0.87500  1.0000
  O   O651      1.0  0.01340  0.56250  0.81250  1.0000
  O   O652      1.0  0.01340  0.68750  0.93750  1.0000
  O   O653      1.0  0.13840  0.56250  0.93750  1.0000
  O   O654      1.0  0.13840  0.68750  0.81250  1.0000
  O   O655      1.0  0.20090  0.62500  0.87500  1.0000
  O   O656      1.0  0.20090  0.50000  0.75000  1.0000
  O   O657      1.0  0.17410  0.62500  0.75000  1.0000
  O   O658      1.0  0.17410  0.50000  0.87500  1.0000
  O   O659      1.0  0.11160  0.56250  0.81250  1.0000
  O   O660      1.0  0.11160  0.68750  0.93750  1.0000
  O   O661      1.0  0.23660  0.56250  0.93750  1.0000
  O   O662      1.0  0.23660  0.68750  0.81250  1.0000
  O   O663      1.0  0.04910  0.62500  0.87500  1.0000
  O   O664      1.0  0.04910  0.50000  0.75000  1.0000
  O   O665      1.0  0.12500  0.62500  0.87500  1.0000
  O   O666      1.0  0.12500  0.50000  0.75000  1.0000
  O   O667      1.0  0.06250  0.56250  0.93750  1.0000
  O   O668      1.0  0.06250  0.68750  0.81250  1.0000
  O   O669      1.0  0.18750  0.56250  0.81250  1.0000
  O   O670      1.0  0.18750  0.68750  0.93750  1.0000
  O   O671      1.0  0.00000  0.62500  0.75000  1.0000
  O   O672      1.0  0.00000  0.50000  0.87500  1.0000
  La  La193     1.0  0.09375  0.84375  0.15625  1.0000
  La  La194     1.0  0.09375  0.96875  0.03125  1.0000
  La  La195     1.0  0.09375  0.90625  0.09375  1.0000
  La  La196     1.0  0.09375  0.78125  0.21875  1.0000
  La  La197     1.0  0.03125  0.78125  0.15625  1.0000
  La  La198     1.0  0.03125  0.90625  0.03125  1.0000
  La  La199     1.0  0.03125  0.84375  0.21875  1.0000
  La  La200     1.0  0.03125  0.96875  0.09375  1.0000
  La  La201     1.0  0.15625  0.78125  0.03125  1.0000
  La  La202     1.0  0.15625  0.90625  0.15625  1.0000
  La  La203     1.0  0.15625  0.84375  0.09375  1.0000
  La  La204     1.0  0.15625  0.96875  0.21875  1.0000
  La  La205     1.0  0.21875  0.84375  0.03125  1.0000
  La  La206     1.0  0.21875  0.96875  0.15625  1.0000
  La  La207     1.0  0.21875  0.90625  0.21875  1.0000
  La  La208     1.0  0.21875  0.78125  0.09375  1.0000
  Zr  Zr193     1.0  0.09375  0.84375  0.03125  1.0000
  Zr  Zr194     1.0  0.09375  0.96875  0.15625  1.0000
  Zr  Zr195     1.0  0.09375  0.90625  0.21875  1.0000
  Zr  Zr196     1.0  0.09375  0.78125  0.09375  1.0000
  Zr  Zr197     1.0  0.03125  0.78125  0.03125  1.0000
  Zr  Zr198     1.0  0.03125  0.90625  0.15625  1.0000
  Zr  Zr199     1.0  0.03125  0.84375  0.09375  1.0000
  Zr  Zr200     1.0  0.03125  0.96875  0.21875  1.0000
  Zr  Zr201     1.0  0.15625  0.78125  0.15625  1.0000
  Zr  Zr202     1.0  0.15625  0.90625  0.03125  1.0000
  Zr  Zr203     1.0  0.15625  0.84375  0.21875  1.0000
  Zr  Zr204     1.0  0.15625  0.96875  0.09375  1.0000
  Zr  Zr205     1.0  0.21875  0.84375  0.15625  1.0000
  Zr  Zr206     1.0  0.21875  0.96875  0.03125  1.0000
  Zr  Zr207     1.0  0.21875  0.90625  0.09375  1.0000
  Zr  Zr208     1.0  0.21875  0.78125  0.21875  1.0000
  O   O673      1.0  0.12500  0.87500  0.04910  1.0000
  O   O674      1.0  0.12500  0.75000  0.17410  1.0000
  O   O675      1.0  0.12500  0.82590  0.00000  1.0000
  O   O676      1.0  0.12500  0.95090  0.12500  1.0000
  O   O677      1.0  0.12500  0.87500  0.20090  1.0000
  O   O678      1.0  0.12500  0.75000  0.07590  1.0000
  O   O679      1.0  0.12500  0.92410  0.00000  1.0000
  O   O680      1.0  0.12500  0.79910  0.12500  1.0000
  O   O681      1.0  0.06250  0.81250  0.01340  1.0000
  O   O682      1.0  0.06250  0.93750  0.13840  1.0000
  O   O683      1.0  0.06250  0.76340  0.06250  1.0000
  O   O684      1.0  0.06250  0.88840  0.18750  1.0000
  O   O685      1.0  0.06250  0.81250  0.11160  1.0000
  O   O686      1.0  0.06250  0.93750  0.23660  1.0000
  O   O687      1.0  0.06250  0.86160  0.06250  1.0000
  O   O688      1.0  0.06250  0.98660  0.18750  1.0000
  O   O689      1.0  0.18750  0.81250  0.13840  1.0000
  O   O690      1.0  0.18750  0.93750  0.01340  1.0000
  O   O691      1.0  0.18750  0.76340  0.18750  1.0000
  O   O692      1.0  0.18750  0.88840  0.06250  1.0000
  O   O693      1.0  0.18750  0.81250  0.23660  1.0000
  O   O694      1.0  0.18750  0.93750  0.11160  1.0000
  O   O695      1.0  0.18750  0.86160  0.18750  1.0000
  O   O696      1.0  0.18750  0.98660  0.06250  1.0000
  O   O697      1.0  0.00000  0.87500  0.17410  1.0000
  O   O698      1.0  0.00000  0.75000  0.04910  1.0000
  O   O699      1.0  0.00000  0.82590  0.12500  1.0000
  O   O700      1.0  0.00000  0.95090  0.00000  1.0000
  O   O701      1.0  0.00000  0.87500  0.07590  1.0000
  O   O702      1.0  0.00000  0.75000  0.20090  1.0000
  O   O703      1.0  0.00000  0.92410  0.12500  1.0000
  O   O704      1.0  0.00000  0.79910  0.00000  1.0000
  O   O705      1.0  0.07590  0.87500  0.00000  1.0000
  O   O706      1.0  0.07590  0.75000  0.12500  1.0000
  O   O707      1.0  0.01340  0.81250  0.06250  1.0000
  O   O708      1.0  0.01340  0.93750  0.18750  1.0000
  O   O709      1.0  0.13840  0.81250  0.18750  1.0000
  O   O710      1.0  0.13840  0.93750  0.06250  1.0000
  O   O711      1.0  0.20090  0.87500  0.12500  1.0000
  O   O712      1.0  0.20090  0.75000  0.00000  1.0000
  O   O713      1.0  0.17410  0.87500  0.00000  1.0000
  O   O714      1.0  0.17410  0.75000  0.12500  1.0000
  O   O715      1.0  0.11160  0.81250  0.06250  1.0000
  O   O716      1.0  0.11160  0.93750  0.18750  1.0000
  O   O717      1.0  0.23660  0.81250  0.18750  1.0000
  O   O718      1.0  0.23660  0.93750  0.06250  1.0000
  O   O719      1.0  0.04910  0.87500  0.12500  1.0000
  O   O720      1.0  0.04910  0.75000  0.00000  1.0000
  O   O721      1.0  0.12500  0.87500  0.12500  1.0000
  O   O722      1.0  0.12500  0.75000  0.00000  1.0000
  O   O723      1.0  0.06250  0.81250  0.18750  1.0000
  O   O724      1.0  0.06250  0.93750  0.06250  1.0000
  O   O725      1.0  0.18750  0.81250  0.06250  1.0000
  O   O726      1.0  0.18750  0.93750  0.18750  1.0000
  O   O727      1.0  0.00000  0.87500  0.00000  1.0000
  O   O728      1.0  0.00000  0.75000  0.12500  1.0000
  La  La209     1.0  0.09375  0.84375  0.40625  1.0000
  La  La210     1.0  0.09375  0.96875  0.28125  1.0000
  La  La211     1.0  0.09375  0.90625  0.34375  1.0000
  La  La212     1.0  0.09375  0.78125  0.46875  1.0000
  La  La213     1.0  0.03125  0.78125  0.40625  1.0000
  La  La214     1.0  0.03125  0.90625  0.28125  1.0000
  La  La215     1.0  0.03125  0.84375  0.46875  1.0000
  La  La216     1.0  0.03125  0.96875  0.34375  1.0000
  La  La217     1.0  0.15625  0.78125  0.28125  1.0000
  La  La218     1.0  0.15625  0.90625  0.40625  1.0000
  La  La219     1.0  0.15625  0.84375  0.34375  1.0000
  La  La220     1.0  0.15625  0.96875  0.46875  1.0000
  La  La221     1.0  0.21875  0.84375  0.28125  1.0000
  La  La222     1.0  0.21875  0.96875  0.40625  1.0000
  La  La223     1.0  0.21875  0.90625  0.46875  1.0000
  La  La224     1.0  0.21875  0.78125  0.34375  1.0000
  Zr  Zr209     1.0  0.09375  0.84375  0.28125  1.0000
  Zr  Zr210     1.0  0.09375  0.96875  0.40625  1.0000
  Zr  Zr211     1.0  0.09375  0.90625  0.46875  1.0000
  Zr  Zr212     1.0  0.09375  0.78125  0.34375  1.0000
  Zr  Zr213     1.0  0.03125  0.78125  0.28125  1.0000
  Zr  Zr214     1.0  0.03125  0.90625  0.40625  1.0000
  Zr  Zr215     1.0  0.03125  0.84375  0.34375  1.0000
  Zr  Zr216     1.0  0.03125  0.96875  0.46875  1.0000
  Zr  Zr217     1.0  0.15625  0.78125  0.40625  1.0000
  Zr  Zr218     1.0  0.15625  0.90625  0.28125  1.0000
  Zr  Zr219     1.0  0.15625  0.84375  0.46875  1.0000
  Zr  Zr220     1.0  0.15625  0.96875  0.34375  1.0000
  Zr  Zr221     1.0  0.21875  0.84375  0.40625  1.0000
  Zr  Zr222     1.0  0.21875  0.96875  0.28125  1.0000
  Zr  Zr223     1.0  0.21875  0.90625  0.34375  1.0000
  Zr  Zr224     1.0  0.21875  0.78125  0.46875  1.0000
  O   O729      1.0  0.12500  0.87500  0.29910  1.0000
  O   O730      1.0  0.12500  0.75000  0.42410  1.0000
  O   O731      1.0  0.12500  0.82590  0.25000  1.0000
  O   O732      1.0  0.12500  0.95090  0.37500  1.0000
  O   O733      1.0  0.12500  0.87500  0.45090  1.0000
  O   O734      1.0  0.12500  0.75000  0.32590  1.0000
  O   O735      1.0  0.12500  0.92410  0.25000  1.0000
  O   O736      1.0  0.12500  0.79910  0.37500  1.0000
  O   O737      1.0  0.06250  0.81250  0.26340  1.0000
  O   O738      1.0  0.06250  0.93750  0.38840  1.0000
  O   O739      1.0  0.06250  0.76340  0.31250  1.0000
  O   O740      1.0  0.06250  0.88840  0.43750  1.0000
  O   O741      1.0  0.06250  0.81250  0.36160  1.0000
  O   O742      1.0  0.06250  0.93750  0.48660  1.0000
  O   O743      1.0  0.06250  0.86160  0.31250  1.0000
  O   O744      1.0  0.06250  0.98660  0.43750  1.0000
  O   O745      1.0  0.18750  0.81250  0.38840  1.0000
  O   O746      1.0  0.18750  0.93750  0.26340  1.0000
  O   O747      1.0  0.18750  0.76340  0.43750  1.0000
  O   O748      1.0  0.18750  0.88840  0.31250  1.0000
  O   O749      1.0  0.18750  0.81250  0.48660  1.0000
  O   O750      1.0  0.18750  0.93750  0.36160  1.0000
  O   O751      1.0  0.18750  0.86160  0.43750  1.0000
  O   O752      1.0  0.18750  0.98660  0.31250  1.0000
  O   O753      1.0  0.00000  0.87500  0.42410  1.0000
  O   O754      1.0  0.00000  0.75000  0.29910  1.0000
  O   O755      1.0  0.00000  0.82590  0.37500  1.0000
  O   O756      1.0  0.00000  0.95090  0.25000  1.0000
  O   O757      1.0  0.00000  0.87500  0.32590  1.0000
  O   O758      1.0  0.00000  0.75000  0.45090  1.0000
  O   O759      1.0  0.00000  0.92410  0.37500  1.0000
  O   O760      1.0  0.00000  0.79910  0.25000  1.0000
  O   O761      1.0  0.07590  0.87500  0.25000  1.0000
  O   O762      1.0  0.07590  0.75000  0.37500  1.0000
  O   O763      1.0  0.01340  0.81250  0.31250  1.0000
  O   O764      1.0  0.01340  0.93750  0.43750  1.0000
  O   O765      1.0  0.13840  0.81250  0.43750  1.0000
  O   O766      1.0  0.13840  0.93750  0.31250  1.0000
  O   O767      1.0  0.20090  0.87500  0.37500  1.0000
  O   O768      1.0  0.20090  0.75000  0.25000  1.0000
  O   O769      1.0  0.17410  0.87500  0.25000  1.0000
  O   O770      1.0  0.17410  0.75000  0.37500  1.0000
  O   O771      1.0  0.11160  0.81250  0.31250  1.0000
  O   O772      1.0  0.11160  0.93750  0.43750  1.0000
  O   O773      1.0  0.23660  0.81250  0.43750  1.0000
  O   O774      1.0  0.23660  0.93750  0.31250  1.0000
  O   O775      1.0  0.04910  0.87500  0.37500  1.0000
  O   O776      1.0  0.04910  0.75000  0.25000  1.0000
  O   O777      1.0  0.12500  0.87500  0.37500  1.0000
  O   O778      1.0  0.12500  0.75000  0.25000  1.0000
  O   O779      1.0  0.06250  0.81250  0.43750  1.0000
  O   O780      1.0  0.06250  0.93750  0.31250  1.0000
  O   O781      1.0  0.18750  0.81250  0.31250  1.0000
  O   O782      1.0  0.18750  0.93750  0.43750  1.0000
  O   O783      1.0  0.00000  0.87500  0.25000  1.0000
  O   O784      1.0  0.00000  0.75000  0.37500  1.0000
  La  La225     1.0  0.09375  0.84375  0.65625  1.0000
  La  La226     1.0  0.09375  0.96875  0.53125  1.0000
  La  La227     1.0  0.09375  0.90625  0.59375  1.0000
  La  La228     1.0  0.09375  0.78125  0.71875  1.0000
  La  La229     1.0  0.03125  0.78125  0.65625  1.0000
  La  La230     1.0  0.03125  0.90625  0.53125  1.0000
  La  La231     1.0  0.03125  0.84375  0.71875  1.0000
  La  La232     1.0  0.03125  0.96875  0.59375  1.0000
  La  La233     1.0  0.15625  0.78125  0.53125  1.0000
  La  La234     1.0  0.15625  0.90625  0.65625  1.0000
  La  La235     1.0  0.15625  0.84375  0.59375  1.0000
  La  La236     1.0  0.15625  0.96875  0.71875  1.0000
  La  La237     1.0  0.21875  0.84375  0.53125  1.0000
  La  La238     1.0  0.21875  0.96875  0.65625  1.0000
  La  La239     1.0  0.21875  0.90625  0.71875  1.0000
  La  La240     1.0  0.21875  0.78125  0.59375  1.0000
  Zr  Zr225     1.0  0.09375  0.84375  0.53125  1.0000
  Zr  Zr226     1.0  0.09375  0.96875  0.65625  1.0000
  Zr  Zr227     1.0  0.09375  0.90625  0.71875  1.0000
  Zr  Zr228     1.0  0.09375  0.78125  0.59375  1.0000
  Zr  Zr229     1.0  0.03125  0.78125  0.53125  1.0000
  Zr  Zr230     1.0  0.03125  0.90625  0.65625  1.0000
  Zr  Zr231     1.0  0.03125  0.84375  0.59375  1.0000
  Zr  Zr232     1.0  0.03125  0.96875  0.71875  1.0000
  Zr  Zr233     1.0  0.15625  0.78125  0.65625  1.0000
  Zr  Zr234     1.0  0.15625  0.90625  0.53125  1.0000
  Zr  Zr235     1.0  0.15625  0.84375  0.71875  1.0000
  Zr  Zr236     1.0  0.15625  0.96875  0.59375  1.0000
  Zr  Zr237     1.0  0.21875  0.84375  0.65625  1.0000
  Zr  Zr238     1.0  0.21875  0.96875  0.53125  1.0000
  Zr  Zr239     1.0  0.21875  0.90625  0.59375  1.0000
  Zr  Zr240     1.0  0.21875  0.78125  0.71875  1.0000
  O   O785      1.0  0.12500  0.87500  0.54910  1.0000
  O   O786      1.0  0.12500  0.75000  0.67410  1.0000
  O   O787      1.0  0.12500  0.82590  0.50000  1.0000
  O   O788      1.0  0.12500  0.95090  0.62500  1.0000
  O   O789      1.0  0.12500  0.87500  0.70090  1.0000
  O   O790      1.0  0.12500  0.75000  0.57590  1.0000
  O   O791      1.0  0.12500  0.92410  0.50000  1.0000
  O   O792      1.0  0.12500  0.79910  0.62500  1.0000
  O   O793      1.0  0.06250  0.81250  0.51340  1.0000
  O   O794      1.0  0.06250  0.93750  0.63840  1.0000
  O   O795      1.0  0.06250  0.76340  0.56250  1.0000
  O   O796      1.0  0.06250  0.88840  0.68750  1.0000
  O   O797      1.0  0.06250  0.81250  0.61160  1.0000
  O   O798      1.0  0.06250  0.93750  0.73660  1.0000
  O   O799      1.0  0.06250  0.86160  0.56250  1.0000
  O   O800      1.0  0.06250  0.98660  0.68750  1.0000
  O   O801      1.0  0.18750  0.81250  0.63840  1.0000
  O   O802      1.0  0.18750  0.93750  0.51340  1.0000
  O   O803      1.0  0.18750  0.76340  0.68750  1.0000
  O   O804      1.0  0.18750  0.88840  0.56250  1.0000
  O   O805      1.0  0.18750  0.81250  0.73660  1.0000
  O   O806      1.0  0.18750  0.93750  0.61160  1.0000
  O   O807      1.0  0.18750  0.86160  0.68750  1.0000
  O   O808      1.0  0.18750  0.98660  0.56250  1.0000
  O   O809      1.0  0.00000  0.87500  0.67410  1.0000
  O   O810      1.0  0.00000  0.75000  0.54910  1.0000
  O   O811      1.0  0.00000  0.82590  0.62500  1.0000
  O   O812      1.0  0.00000  0.95090  0.50000  1.0000
  O   O813      1.0  0.00000  0.87500  0.57590  1.0000
  O   O814      1.0  0.00000  0.75000  0.70090  1.0000
  O   O815      1.0  0.00000  0.92410  0.62500  1.0000
  O   O816      1.0  0.00000  0.79910  0.50000  1.0000
  O   O817      1.0  0.07590  0.87500  0.50000  1.0000
  O   O818      1.0  0.07590  0.75000  0.62500  1.0000
  O   O819      1.0  0.01340  0.81250  0.56250  1.0000
  O   O820      1.0  0.01340  0.93750  0.68750  1.0000
  O   O821      1.0  0.13840  0.81250  0.68750  1.0000
  O   O822      1.0  0.13840  0.93750  0.56250  1.0000
  O   O823      1.0  0.20090  0.87500  0.62500  1.0000
  O   O824      1.0  0.20090  0.75000  0.50000  1.0000
  O   O825      1.0  0.17410  0.87500  0.50000  1.0000
  O   O826      1.0  0.17410  0.75000  0.62500  1.0000
  O   O827      1.0  0.11160  0.81250  0.56250  1.0000
  O   O828      1.0  0.11160  0.93750  0.68750  1.0000
  O   O829      1.0  0.23660  0.81250  0.68750  1.0000
  O   O830      1.0  0.23660  0.93750  0.56250  1.0000
  O   O831      1.0  0.04910  0.87500  0.62500  1.0000
  O   O832      1.0  0.04910  0.75000  0.50000  1.0000
  O   O833      1.0  0.12500  0.87500  0.62500  1.0000
  O   O834      1.0  0.12500  0.75000  0.50000  1.0000
  O   O835      1.0  0.06250  0.81250  0.68750  1.0000
  O   O836      1.0  0.06250  0.93750  0.56250  1.0000
  O   O837      1.0  0.18750  0.81250  0.56250  1.0000
  O   O838      1.0  0.18750  0.93750  0.68750  1.0000
  O   O839      1.0  0.00000  0.87500  0.50000  1.0000
  O   O840      1.0  0.00000  0.75000  0.62500  1.0000
  La  La241     1.0  0.09375  0.84375  0.90625  1.0000
  La  La242     1.0  0.09375  0.96875  0.78125  1.0000
  La  La243     1.0  0.09375  0.90625  0.84375  1.0000
  La  La244     1.0  0.09375  0.78125  0.96875  1.0000
  La  La245     1.0  0.03125  0.78125  0.90625  1.0000
  La  La246     1.0  0.03125  0.90625  0.78125  1.0000
  La  La247     1.0  0.03125  0.84375  0.96875  1.0000
  La  La248     1.0  0.03125  0.96875  0.84375  1.0000
  La  La249     1.0  0.15625  0.78125  0.78125  1.0000
  La  La250     1.0  0.15625  0.90625  0.90625  1.0000
  La  La251     1.0  0.15625  0.84375  0.84375  1.0000
  La  La252     1.0  0.15625  0.96875  0.96875  1.0000
  La  La253     1.0  0.21875  0.84375  0.78125  1.0000
  La  La254     1.0  0.21875  0.96875  0.90625  1.0000
  La  La255     1.0  0.21875  0.90625  0.96875  1.0000
  La  La256     1.0  0.21875  0.78125  0.84375  1.0000
  Zr  Zr241     1.0  0.09375  0.84375  0.78125  1.0000
  Zr  Zr242     1.0  0.09375  0.96875  0.90625  1.0000
  Zr  Zr243     1.0  0.09375  0.90625  0.96875  1.0000
  Zr  Zr244     1.0  0.09375  0.78125  0.84375  1.0000
  Zr  Zr245     1.0  0.03125  0.78125  0.78125  1.0000
  Zr  Zr246     1.0  0.03125  0.90625  0.90625  1.0000
  Zr  Zr247     1.0  0.03125  0.84375  0.84375  1.0000
  Zr  Zr248     1.0  0.03125  0.96875  0.96875  1.0000
  Zr  Zr249     1.0  0.15625  0.78125  0.90625  1.0000
  Zr  Zr250     1.0  0.15625  0.90625  0.78125  1.0000
  Zr  Zr251     1.0  0.15625  0.84375  0.96875  1.0000
  Zr  Zr252     1.0  0.15625  0.96875  0.84375  1.0000
  Zr  Zr253     1.0  0.21875  0.84375  0.90625  1.0000
  Zr  Zr254     1.0  0.21875  0.96875  0.78125  1.0000
  Zr  Zr255     1.0  0.21875  0.90625  0.84375  1.0000
  Zr  Zr256     1.0  0.21875  0.78125  0.96875  1.0000
  O   O841      1.0  0.12500  0.87500  0.79910  1.0000
  O   O842      1.0  0.12500  0.75000  0.92410  1.0000
  O   O843      1.0  0.12500  0.82590  0.75000  1.0000
  O   O844      1.0  0.12500  0.95090  0.87500  1.0000
  O   O845      1.0  0.12500  0.87500  0.95090  1.0000
  O   O846      1.0  0.12500  0.75000  0.82590  1.0000
  O   O847      1.0  0.12500  0.92410  0.75000  1.0000
  O   O848      1.0  0.12500  0.79910  0.87500  1.0000
  O   O849      1.0  0.06250  0.81250  0.76340  1.0000
  O   O850      1.0  0.06250  0.93750  0.88840  1.0000
  O   O851      1.0  0.06250  0.76340  0.81250  1.0000
  O   O852      1.0  0.06250  0.88840  0.93750  1.0000
  O   O853      1.0  0.06250  0.81250  0.86160  1.0000
  O   O854      1.0  0.06250  0.93750  0.98660  1.0000
  O   O855      1.0  0.06250  0.86160  0.81250  1.0000
  O   O856      1.0  0.06250  0.98660  0.93750  1.0000
  O   O857      1.0  0.18750  0.81250  0.88840  1.0000
  O   O858      1.0  0.18750  0.93750  0.76340  1.0000
  O   O859      1.0  0.18750  0.76340  0.93750  1.0000
  O   O860      1.0  0.18750  0.88840  0.81250  1.0000
  O   O861      1.0  0.18750  0.81250  0.98660  1.0000
  O   O862      1.0  0.18750  0.93750  0.86160  1.0000
  O   O863      1.0  0.18750  0.86160  0.93750  1.0000
  O   O864      1.0  0.18750  0.98660  0.81250  1.0000
  O   O865      1.0  0.00000  0.87500  0.92410  1.0000
  O   O866      1.0  0.00000  0.75000  0.79910  1.0000
  O   O867      1.0  0.00000  0.82590  0.87500  1.0000
  O   O868      1.0  0.00000  0.95090  0.75000  1.0000
  O   O869      1.0  0.00000  0.87500  0.82590  1.0000
  O   O870      1.0  0.00000  0.75000  0.95090  1.0000
  O   O871      1.0  0.00000  0.92410  0.87500  1.0000
  O   O872      1.0  0.00000  0.79910  0.75000  1.0000
  O   O873      1.0  0.07590  0.87500  0.75000  1.0000
  O   O874      1.0  0.07590  0.75000  0.87500  1.0000
  O   O875      1.0  0.01340  0.81250  0.81250  1.0000
  O   O876      1.0  0.01340  0.93750  0.93750  1.0000
  O   O877      1.0  0.13840  0.81250  0.93750  1.0000
  O   O878      1.0  0.13840  0.93750  0.81250  1.0000
  O   O879      1.0  0.20090  0.87500  0.87500  1.0000
  O   O880      1.0  0.20090  0.75000  0.75000  1.0000
  O   O881      1.0  0.17410  0.87500  0.75000  1.0000
  O   O882      1.0  0.17410  0.75000  0.87500  1.0000
  O   O883      1.0  0.11160  0.81250  0.81250  1.0000
  O   O884      1.0  0.11160  0.93750  0.93750  1.0000
  O   O885      1.0  0.23660  0.81250  0.93750  1.0000
  O   O886      1.0  0.23660  0.93750  0.81250  1.0000
  O   O887      1.0  0.04910  0.87500  0.87500  1.0000
  O   O888      1.0  0.04910  0.75000  0.75000  1.0000
  O   O889      1.0  0.12500  0.87500  0.87500  1.0000
  O   O890      1.0  0.12500  0.75000  0.75000  1.0000
  O   O891      1.0  0.06250  0.81250  0.93750  1.0000
  O   O892      1.0  0.06250  0.93750  0.81250  1.0000
  O   O893      1.0  0.18750  0.81250  0.81250  1.0000
  O   O894      1.0  0.18750  0.93750  0.93750  1.0000
  O   O895      1.0  0.00000  0.87500  0.75000  1.0000
  O   O896      1.0  0.00000  0.75000  0.87500  1.0000
  La  La257     1.0  0.34375  0.09375  0.15625  1.0000
  La  La258     1.0  0.34375  0.21875  0.03125  1.0000
  La  La259     1.0  0.34375  0.15625  0.09375  1.0000
  La  La260     1.0  0.34375  0.03125  0.21875  1.0000
  La  La261     1.0  0.28125  0.03125  0.15625  1.0000
  La  La262     1.0  0.28125  0.15625  0.03125  1.0000
  La  La263     1.0  0.28125  0.09375  0.21875  1.0000
  La  La264     1.0  0.28125  0.21875  0.09375  1.0000
  La  La265     1.0  0.40625  0.03125  0.03125  1.0000
  La  La266     1.0  0.40625  0.15625  0.15625  1.0000
  La  La267     1.0  0.40625  0.09375  0.09375  1.0000
  La  La268     1.0  0.40625  0.21875  0.21875  1.0000
  La  La269     1.0  0.46875  0.09375  0.03125  1.0000
  La  La270     1.0  0.46875  0.21875  0.15625  1.0000
  La  La271     1.0  0.46875  0.15625  0.21875  1.0000
  La  La272     1.0  0.46875  0.03125  0.09375  1.0000
  Zr  Zr257     1.0  0.34375  0.09375  0.03125  1.0000
  Zr  Zr258     1.0  0.34375  0.21875  0.15625  1.0000
  Zr  Zr259     1.0  0.34375  0.15625  0.21875  1.0000
  Zr  Zr260     1.0  0.34375  0.03125  0.09375  1.0000
  Zr  Zr261     1.0  0.28125  0.03125  0.03125  1.0000
  Zr  Zr262     1.0  0.28125  0.15625  0.15625  1.0000
  Zr  Zr263     1.0  0.28125  0.09375  0.09375  1.0000
  Zr  Zr264     1.0  0.28125  0.21875  0.21875  1.0000
  Zr  Zr265     1.0  0.40625  0.03125  0.15625  1.0000
  Zr  Zr266     1.0  0.40625  0.15625  0.03125  1.0000
  Zr  Zr267     1.0  0.40625  0.09375  0.21875  1.0000
  Zr  Zr268     1.0  0.40625  0.21875  0.09375  1.0000
  Zr  Zr269     1.0  0.46875  0.09375  0.15625  1.0000
  Zr  Zr270     1.0  0.46875  0.21875  0.03125  1.0000
  Zr  Zr271     1.0  0.46875  0.15625  0.09375  1.0000
  Zr  Zr272     1.0  0.46875  0.03125  0.21875  1.0000
  O   O897      1.0  0.37500  0.12500  0.04910  1.0000
  O   O898      1.0  0.37500  0.00000  0.17410  1.0000
  O   O899      1.0  0.37500  0.07590  0.00000  1.0000
  O   O900      1.0  0.37500  0.20090  0.12500  1.0000
  O   O901      1.0  0.37500  0.12500  0.20090  1.0000
  O   O902      1.0  0.37500  0.00000  0.07590  1.0000
  O   O903      1.0  0.37500  0.17410  0.00000  1.0000
  O   O904      1.0  0.37500  0.04910  0.12500  1.0000
  O   O905      1.0  0.31250  0.06250  0.01340  1.0000
  O   O906      1.0  0.31250  0.18750  0.13840  1.0000
  O   O907      1.0  0.31250  0.01340  0.06250  1.0000
  O   O908      1.0  0.31250  0.13840  0.18750  1.0000
  O   O909      1.0  0.31250  0.06250  0.11160  1.0000
  O   O910      1.0  0.31250  0.18750  0.23660  1.0000
  O   O911      1.0  0.31250  0.11160  0.06250  1.0000
  O   O912      1.0  0.31250  0.23660  0.18750  1.0000
  O   O913      1.0  0.43750  0.06250  0.13840  1.0000
  O   O914      1.0  0.43750  0.18750  0.01340  1.0000
  O   O915      1.0  0.43750  0.01340  0.18750  1.0000
  O   O916      1.0  0.43750  0.13840  0.06250  1.0000
  O   O917      1.0  0.43750  0.06250  0.23660  1.0000
  O   O918      1.0  0.43750  0.18750  0.11160  1.0000
  O   O919      1.0  0.43750  0.11160  0.18750  1.0000
  O   O920      1.0  0.43750  0.23660  0.06250  1.0000
  O   O921      1.0  0.25000  0.12500  0.17410  1.0000
  O   O922      1.0  0.25000  0.00000  0.04910  1.0000
  O   O923      1.0  0.25000  0.07590  0.12500  1.0000
  O   O924      1.0  0.25000  0.20090  0.00000  1.0000
  O   O925      1.0  0.25000  0.12500  0.07590  1.0000
  O   O926      1.0  0.25000  0.00000  0.20090  1.0000
  O   O927      1.0  0.25000  0.17410  0.12500  1.0000
  O   O928      1.0  0.25000  0.04910  0.00000  1.0000
  O   O929      1.0  0.32590  0.12500  0.00000  1.0000
  O   O930      1.0  0.32590  0.00000  0.12500  1.0000
  O   O931      1.0  0.26340  0.06250  0.06250  1.0000
  O   O932      1.0  0.26340  0.18750  0.18750  1.0000
  O   O933      1.0  0.38840  0.06250  0.18750  1.0000
  O   O934      1.0  0.38840  0.18750  0.06250  1.0000
  O   O935      1.0  0.45090  0.12500  0.12500  1.0000
  O   O936      1.0  0.45090  0.00000  0.00000  1.0000
  O   O937      1.0  0.42410  0.12500  0.00000  1.0000
  O   O938      1.0  0.42410  0.00000  0.12500  1.0000
  O   O939      1.0  0.36160  0.06250  0.06250  1.0000
  O   O940      1.0  0.36160  0.18750  0.18750  1.0000
  O   O941      1.0  0.48660  0.06250  0.18750  1.0000
  O   O942      1.0  0.48660  0.18750  0.06250  1.0000
  O   O943      1.0  0.29910  0.12500  0.12500  1.0000
  O   O944      1.0  0.29910  0.00000  0.00000  1.0000
  O   O945      1.0  0.37500  0.12500  0.12500  1.0000
  O   O946      1.0  0.37500  0.00000  0.00000  1.0000
  O   O947      1.0  0.31250  0.06250  0.18750  1.0000
  O   O948      1.0  0.31250  0.18750  0.06250  1.0000
  O   O949      1.0  0.43750  0.06250  0.06250  1.0000
  O   O950      1.0  0.43750  0.18750  0.18750  1.0000
  O   O951      1.0  0.25000  0.12500  0.00000  1.0000
  O   O952      1.0  0.25000  0.00000  0.12500  1.0000
  La  La273     1.0  0.34375  0.09375  0.40625  1.0000
  La  La274     1.0  0.34375  0.21875  0.28125  1.0000
  La  La275     1.0  0.34375  0.15625  0.34375  1.0000
  La  La276     1.0  0.34375  0.03125  0.46875  1.0000
  La  La277     1.0  0.28125  0.03125  0.40625  1.0000
  La  La278     1.0  0.28125  0.15625  0.28125  1.0000
  La  La279     1.0  0.28125  0.09375  0.46875  1.0000
  La  La280     1.0  0.28125  0.21875  0.34375  1.0000
  La  La281     1.0  0.40625  0.03125  0.28125  1.0000
  La  La282     1.0  0.40625  0.15625  0.40625  1.0000
  La  La283     1.0  0.40625  0.09375  0.34375  1.0000
  La  La284     1.0  0.40625  0.21875  0.46875  1.0000
  La  La285     1.0  0.46875  0.09375  0.28125  1.0000
  La  La286     1.0  0.46875  0.21875  0.40625  1.0000
  La  La287     1.0  0.46875  0.15625  0.46875  1.0000
  La  La288     1.0  0.46875  0.03125  0.34375  1.0000
  Zr  Zr273     1.0  0.34375  0.09375  0.28125  1.0000
  Zr  Zr274     1.0  0.34375  0.21875  0.40625  1.0000
  Zr  Zr275     1.0  0.34375  0.15625  0.46875  1.0000
  Zr  Zr276     1.0  0.34375  0.03125  0.34375  1.0000
  Zr  Zr277     1.0  0.28125  0.03125  0.28125  1.0000
  Zr  Zr278     1.0  0.28125  0.15625  0.40625  1.0000
  Zr  Zr279     1.0  0.28125  0.09375  0.34375  1.0000
  Zr  Zr280     1.0  0.28125  0.21875  0.46875  1.0000
  Zr  Zr281     1.0  0.40625  0.03125  0.40625  1.0000
  Zr  Zr282     1.0  0.40625  0.15625  0.28125  1.0000
  Zr  Zr283     1.0  0.40625  0.09375  0.46875  1.0000
  Zr  Zr284     1.0  0.40625  0.21875  0.34375  1.0000
  Zr  Zr285     1.0  0.46875  0.09375  0.40625  1.0000
  Zr  Zr286     1.0  0.46875  0.21875  0.28125  1.0000
  Zr  Zr287     1.0  0.46875  0.15625  0.34375  1.0000
  Zr  Zr288     1.0  0.46875  0.03125  0.46875  1.0000
  O   O953      1.0  0.37500  0.12500  0.29910  1.0000
  O   O954      1.0  0.37500  0.00000  0.42410  1.0000
  O   O955      1.0  0.37500  0.07590  0.25000  1.0000
  O   O956      1.0  0.37500  0.20090  0.37500  1.0000
  O   O957      1.0  0.37500  0.12500  0.45090  1.0000
  O   O958      1.0  0.37500  0.00000  0.32590  1.0000
  O   O959      1.0  0.37500  0.17410  0.25000  1.0000
  O   O960      1.0  0.37500  0.04910  0.37500  1.0000
  O   O961      1.0  0.31250  0.06250  0.26340  1.0000
  O   O962      1.0  0.31250  0.18750  0.38840  1.0000
  O   O963      1.0  0.31250  0.01340  0.31250  1.0000
  O   O964      1.0  0.31250  0.13840  0.43750  1.0000
  O   O965      1.0  0.31250  0.06250  0.36160  1.0000
  O   O966      1.0  0.31250  0.18750  0.48660  1.0000
  O   O967      1.0  0.31250  0.11160  0.31250  1.0000
  O   O968      1.0  0.31250  0.23660  0.43750  1.0000
  O   O969      1.0  0.43750  0.06250  0.38840  1.0000
  O   O970      1.0  0.43750  0.18750  0.26340  1.0000
  O   O971      1.0  0.43750  0.01340  0.43750  1.0000
  O   O972      1.0  0.43750  0.13840  0.31250  1.0000
  O   O973      1.0  0.43750  0.06250  0.48660  1.0000
  O   O974      1.0  0.43750  0.18750  0.36160  1.0000
  O   O975      1.0  0.43750  0.11160  0.43750  1.0000
  O   O976      1.0  0.43750  0.23660  0.31250  1.0000
  O   O977      1.0  0.25000  0.12500  0.42410  1.0000
  O   O978      1.0  0.25000  0.00000  0.29910  1.0000
  O   O979      1.0  0.25000  0.07590  0.37500  1.0000
  O   O980      1.0  0.25000  0.20090  0.25000  1.0000
  O   O981      1.0  0.25000  0.12500  0.32590  1.0000
  O   O982      1.0  0.25000  0.00000  0.45090  1.0000
  O   O983      1.0  0.25000  0.17410  0.37500  1.0000
  O   O984      1.0  0.25000  0.04910  0.25000  1.0000
  O   O985      1.0  0.32590  0.12500  0.25000  1.0000
  O   O986      1.0  0.32590  0.00000  0.37500  1.0000
  O   O987      1.0  0.26340  0.06250  0.31250  1.0000
  O   O988      1.0  0.26340  0.18750  0.43750  1.0000
  O   O989      1.0  0.38840  0.06250  0.43750  1.0000
  O   O990      1.0  0.38840  0.18750  0.31250  1.0000
  O   O991      1.0  0.45090  0.12500  0.37500  1.0000
  O   O992      1.0  0.45090  0.00000  0.25000  1.0000
  O   O993      1.0  0.42410  0.12500  0.25000  1.0000
  O   O994      1.0  0.42410  0.00000  0.37500  1.0000
  O   O995      1.0  0.36160  0.06250  0.31250  1.0000
  O   O996      1.0  0.36160  0.18750  0.43750  1.0000
  O   O997      1.0  0.48660  0.06250  0.43750  1.0000
  O   O998      1.0  0.48660  0.18750  0.31250  1.0000
  O   O999      1.0  0.29910  0.12500  0.37500  1.0000
  O   O1000     1.0  0.29910  0.00000  0.25000  1.0000
  O   O1001     1.0  0.37500  0.12500  0.37500  1.0000
  O   O1002     1.0  0.37500  0.00000  0.25000  1.0000
  O   O1003     1.0  0.31250  0.06250  0.43750  1.0000
  O   O1004     1.0  0.31250  0.18750  0.31250  1.0000
  O   O1005     1.0  0.43750  0.06250  0.31250  1.0000
  O   O1006     1.0  0.43750  0.18750  0.43750  1.0000
  O   O1007     1.0  0.25000  0.12500  0.25000  1.0000
  O   O1008     1.0  0.25000  0.00000  0.37500  1.0000
  La  La289     1.0  0.34375  0.09375  0.65625  1.0000
  La  La290     1.0  0.34375  0.21875  0.53125  1.0000
  La  La291     1.0  0.34375  0.15625  0.59375  1.0000
  La  La292     1.0  0.34375  0.03125  0.71875  1.0000
  La  La293     1.0  0.28125  0.03125  0.65625  1.0000
  La  La294     1.0  0.28125  0.15625  0.53125  1.0000
  La  La295     1.0  0.28125  0.09375  0.71875  1.0000
  La  La296     1.0  0.28125  0.21875  0.59375  1.0000
  La  La297     1.0  0.40625  0.03125  0.53125  1.0000
  La  La298     1.0  0.40625  0.15625  0.65625  1.0000
  La  La299     1.0  0.40625  0.09375  0.59375  1.0000
  La  La300     1.0  0.40625  0.21875  0.71875  1.0000
  La  La301     1.0  0.46875  0.09375  0.53125  1.0000
  La  La302     1.0  0.46875  0.21875  0.65625  1.0000
  La  La303     1.0  0.46875  0.15625  0.71875  1.0000
  La  La304     1.0  0.46875  0.03125  0.59375  1.0000
  Zr  Zr289     1.0  0.34375  0.09375  0.53125  1.0000
  Zr  Zr290     1.0  0.34375  0.21875  0.65625  1.0000
  Zr  Zr291     1.0  0.34375  0.15625  0.71875  1.0000
  Zr  Zr292     1.0  0.34375  0.03125  0.59375  1.0000
  Zr  Zr293     1.0  0.28125  0.03125  0.53125  1.0000
  Zr  Zr294     1.0  0.28125  0.15625  0.65625  1.0000
  Zr  Zr295     1.0  0.28125  0.09375  0.59375  1.0000
  Zr  Zr296     1.0  0.28125  0.21875  0.71875  1.0000
  Zr  Zr297     1.0  0.40625  0.03125  0.65625  1.0000
  Zr  Zr298     1.0  0.40625  0.15625  0.53125  1.0000
  Zr  Zr299     1.0  0.40625  0.09375  0.71875  1.0000
  Zr  Zr300     1.0  0.40625  0.21875  0.59375  1.0000
  Zr  Zr301     1.0  0.46875  0.09375  0.65625  1.0000
  Zr  Zr302     1.0  0.46875  0.21875  0.53125  1.0000
  Zr  Zr303     1.0  0.46875  0.15625  0.59375  1.0000
  Zr  Zr304     1.0  0.46875  0.03125  0.71875  1.0000
  O   O1009     1.0  0.37500  0.12500  0.54910  1.0000
  O   O1010     1.0  0.37500  0.00000  0.67410  1.0000
  O   O1011     1.0  0.37500  0.07590  0.50000  1.0000
  O   O1012     1.0  0.37500  0.20090  0.62500  1.0000
  O   O1013     1.0  0.37500  0.12500  0.70090  1.0000
  O   O1014     1.0  0.37500  0.00000  0.57590  1.0000
  O   O1015     1.0  0.37500  0.17410  0.50000  1.0000
  O   O1016     1.0  0.37500  0.04910  0.62500  1.0000
  O   O1017     1.0  0.31250  0.06250  0.51340  1.0000
  O   O1018     1.0  0.31250  0.18750  0.63840  1.0000
  O   O1019     1.0  0.31250  0.01340  0.56250  1.0000
  O   O1020     1.0  0.31250  0.13840  0.68750  1.0000
  O   O1021     1.0  0.31250  0.06250  0.61160  1.0000
  O   O1022     1.0  0.31250  0.18750  0.73660  1.0000
  O   O1023     1.0  0.31250  0.11160  0.56250  1.0000
  O   O1024     1.0  0.31250  0.23660  0.68750  1.0000
  O   O1025     1.0  0.43750  0.06250  0.63840  1.0000
  O   O1026     1.0  0.43750  0.18750  0.51340  1.0000
  O   O1027     1.0  0.43750  0.01340  0.68750  1.0000
  O   O1028     1.0  0.43750  0.13840  0.56250  1.0000
  O   O1029     1.0  0.43750  0.06250  0.73660  1.0000
  O   O1030     1.0  0.43750  0.18750  0.61160  1.0000
  O   O1031     1.0  0.43750  0.11160  0.68750  1.0000
  O   O1032     1.0  0.43750  0.23660  0.56250  1.0000
  O   O1033     1.0  0.25000  0.12500  0.67410  1.0000
  O   O1034     1.0  0.25000  0.00000  0.54910  1.0000
  O   O1035     1.0  0.25000  0.07590  0.62500  1.0000
  O   O1036     1.0  0.25000  0.20090  0.50000  1.0000
  O   O1037     1.0  0.25000  0.12500  0.57590  1.0000
  O   O1038     1.0  0.25000  0.00000  0.70090  1.0000
  O   O1039     1.0  0.25000  0.17410  0.62500  1.0000
  O   O1040     1.0  0.25000  0.04910  0.50000  1.0000
  O   O1041     1.0  0.32590  0.12500  0.50000  1.0000
  O   O1042     1.0  0.32590  0.00000  0.62500  1.0000
  O   O1043     1.0  0.26340  0.06250  0.56250  1.0000
  O   O1044     1.0  0.26340  0.18750  0.68750  1.0000
  O   O1045     1.0  0.38840  0.06250  0.68750  1.0000
  O   O1046     1.0  0.38840  0.18750  0.56250  1.0000
  O   O1047     1.0  0.45090  0.12500  0.62500  1.0000
  O   O1048     1.0  0.45090  0.00000  0.50000  1.0000
  O   O1049     1.0  0.42410  0.12500  0.50000  1.0000
  O   O1050     1.0  0.42410  0.00000  0.62500  1.0000
  O   O1051     1.0  0.36160  0.06250  0.56250  1.0000
  O   O1052     1.0  0.36160  0.18750  0.68750  1.0000
  O   O1053     1.0  0.48660  0.06250  0.68750  1.0000
  O   O1054     1.0  0.48660  0.18750  0.56250  1.0000
  O   O1055     1.0  0.29910  0.12500  0.62500  1.0000
  O   O1056     1.0  0.29910  0.00000  0.50000  1.0000
  O   O1057     1.0  0.37500  0.12500  0.62500  1.0000
  O   O1058     1.0  0.37500  0.00000  0.50000  1.0000
  O   O1059     1.0  0.31250  0.06250  0.68750  1.0000
  O   O1060     1.0  0.31250  0.18750  0.56250  1.0000
  O   O1061     1.0  0.43750  0.06250  0.56250  1.0000
  O   O1062     1.0  0.43750  0.18750  0.68750  1.0000
  O   O1063     1.0  0.25000  0.12500  0.50000  1.0000
  O   O1064     1.0  0.25000  0.00000  0.62500  1.0000
  La  La305     1.0  0.34375  0.09375  0.90625  1.0000
  La  La306     1.0  0.34375  0.21875  0.78125  1.0000
  La  La307     1.0  0.34375  0.15625  0.84375  1.0000
  La  La308     1.0  0.34375  0.03125  0.96875  1.0000
  La  La309     1.0  0.28125  0.03125  0.90625  1.0000
  La  La310     1.0  0.28125  0.15625  0.78125  1.0000
  La  La311     1.0  0.28125  0.09375  0.96875  1.0000
  La  La312     1.0  0.28125  0.21875  0.84375  1.0000
  La  La313     1.0  0.40625  0.03125  0.78125  1.0000
  La  La314     1.0  0.40625  0.15625  0.90625  1.0000
  La  La315     1.0  0.40625  0.09375  0.84375  1.0000
  La  La316     1.0  0.40625  0.21875  0.96875  1.0000
  La  La317     1.0  0.46875  0.09375  0.78125  1.0000
  La  La318     1.0  0.46875  0.21875  0.90625  1.0000
  La  La319     1.0  0.46875  0.15625  0.96875  1.0000
  La  La320     1.0  0.46875  0.03125  0.84375  1.0000
  Zr  Zr305     1.0  0.34375  0.09375  0.78125  1.0000
  Zr  Zr306     1.0  0.34375  0.21875  0.90625  1.0000
  Zr  Zr307     1.0  0.34375  0.15625  0.96875  1.0000
  Zr  Zr308     1.0  0.34375  0.03125  0.84375  1.0000
  Zr  Zr309     1.0  0.28125  0.03125  0.78125  1.0000
  Zr  Zr310     1.0  0.28125  0.15625  0.90625  1.0000
  Zr  Zr311     1.0  0.28125  0.09375  0.84375  1.0000
  Zr  Zr312     1.0  0.28125  0.21875  0.96875  1.0000
  Zr  Zr313     1.0  0.40625  0.03125  0.90625  1.0000
  Zr  Zr314     1.0  0.40625  0.15625  0.78125  1.0000
  Zr  Zr315     1.0  0.40625  0.09375  0.96875  1.0000
  Zr  Zr316     1.0  0.40625  0.21875  0.84375  1.0000
  Zr  Zr317     1.0  0.46875  0.09375  0.90625  1.0000
  Zr  Zr318     1.0  0.46875  0.21875  0.78125  1.0000
  Zr  Zr319     1.0  0.46875  0.15625  0.84375  1.0000
  Zr  Zr320     1.0  0.46875  0.03125  0.96875  1.0000
  O   O1065     1.0  0.37500  0.12500  0.79910  1.0000
  O   O1066     1.0  0.37500  0.00000  0.92410  1.0000
  O   O1067     1.0  0.37500  0.07590  0.75000  1.0000
  O   O1068     1.0  0.37500  0.20090  0.87500  1.0000
  O   O1069     1.0  0.37500  0.12500  0.95090  1.0000
  O   O1070     1.0  0.37500  0.00000  0.82590  1.0000
  O   O1071     1.0  0.37500  0.17410  0.75000  1.0000
  O   O1072     1.0  0.37500  0.04910  0.87500  1.0000
  O   O1073     1.0  0.31250  0.06250  0.76340  1.0000
  O   O1074     1.0  0.31250  0.18750  0.88840  1.0000
  O   O1075     1.0  0.31250  0.01340  0.81250  1.0000
  O   O1076     1.0  0.31250  0.13840  0.93750  1.0000
  O   O1077     1.0  0.31250  0.06250  0.86160  1.0000
  O   O1078     1.0  0.31250  0.18750  0.98660  1.0000
  O   O1079     1.0  0.31250  0.11160  0.81250  1.0000
  O   O1080     1.0  0.31250  0.23660  0.93750  1.0000
  O   O1081     1.0  0.43750  0.06250  0.88840  1.0000
  O   O1082     1.0  0.43750  0.18750  0.76340  1.0000
  O   O1083     1.0  0.43750  0.01340  0.93750  1.0000
  O   O1084     1.0  0.43750  0.13840  0.81250  1.0000
  O   O1085     1.0  0.43750  0.06250  0.98660  1.0000
  O   O1086     1.0  0.43750  0.18750  0.86160  1.0000
  O   O1087     1.0  0.43750  0.11160  0.93750  1.0000
  O   O1088     1.0  0.43750  0.23660  0.81250  1.0000
  O   O1089     1.0  0.25000  0.12500  0.92410  1.0000
  O   O1090     1.0  0.25000  0.00000  0.79910  1.0000
  O   O1091     1.0  0.25000  0.07590  0.87500  1.0000
  O   O1092     1.0  0.25000  0.20090  0.75000  1.0000
  O   O1093     1.0  0.25000  0.12500  0.82590  1.0000
  O   O1094     1.0  0.25000  0.00000  0.95090  1.0000
  O   O1095     1.0  0.25000  0.17410  0.87500  1.0000
  O   O1096     1.0  0.25000  0.04910  0.75000  1.0000
  O   O1097     1.0  0.32590  0.12500  0.75000  1.0000
  O   O1098     1.0  0.32590  0.00000  0.87500  1.0000
  O   O1099     1.0  0.26340  0.06250  0.81250  1.0000
  O   O1100     1.0  0.26340  0.18750  0.93750  1.0000
  O   O1101     1.0  0.38840  0.06250  0.93750  1.0000
  O   O1102     1.0  0.38840  0.18750  0.81250  1.0000
  O   O1103     1.0  0.45090  0.12500  0.87500  1.0000
  O   O1104     1.0  0.45090  0.00000  0.75000  1.0000
  O   O1105     1.0  0.42410  0.12500  0.75000  1.0000
  O   O1106     1.0  0.42410  0.00000  0.87500  1.0000
  O   O1107     1.0  0.36160  0.06250  0.81250  1.0000
  O   O1108     1.0  0.36160  0.18750  0.93750  1.0000
  O   O1109     1.0  0.48660  0.06250  0.93750  1.0000
  O   O1110     1.0  0.48660  0.18750  0.81250  1.0000
  O   O1111     1.0  0.29910  0.12500  0.87500  1.0000
  O   O1112     1.0  0.29910  0.00000  0.75000  1.0000
  O   O1113     1.0  0.37500  0.12500  0.87500  1.0000
  O   O1114     1.0  0.37500  0.00000  0.75000  1.0000
  O   O1115     1.0  0.31250  0.06250  0.93750  1.0000
  O   O1116     1.0  0.31250  0.18750  0.81250  1.0000
  O   O1117     1.0  0.43750  0.06250  0.81250  1.0000
  O   O1118     1.0  0.43750  0.18750  0.93750  1.0000
  O   O1119     1.0  0.25000  0.12500  0.75000  1.0000
  O   O1120     1.0  0.25000  0.00000  0.87500  1.0000
  La  La321     1.0  0.34375  0.34375  0.15625  1.0000
  La  La322     1.0  0.34375  0.46875  0.03125  1.0000
  La  La323     1.0  0.34375  0.40625  0.09375  1.0000
  La  La324     1.0  0.34375  0.28125  0.21875  1.0000
  La  La325     1.0  0.28125  0.28125  0.15625  1.0000
  La  La326     1.0  0.28125  0.40625  0.03125  1.0000
  La  La327     1.0  0.28125  0.34375  0.21875  1.0000
  La  La328     1.0  0.28125  0.46875  0.09375  1.0000
  La  La329     1.0  0.40625  0.28125  0.03125  1.0000
  La  La330     1.0  0.40625  0.40625  0.15625  1.0000
  La  La331     1.0  0.40625  0.34375  0.09375  1.0000
  La  La332     1.0  0.40625  0.46875  0.21875  1.0000
  La  La333     1.0  0.46875  0.34375  0.03125  1.0000
  La  La334     1.0  0.46875  0.46875  0.15625  1.0000
  La  La335     1.0  0.46875  0.40625  0.21875  1.0000
  La  La336     1.0  0.46875  0.28125  0.09375  1.0000
  Zr  Zr321     1.0  0.34375  0.34375  0.03125  1.0000
  Zr  Zr322     1.0  0.34375  0.46875  0.15625  1.0000
  Zr  Zr323     1.0  0.34375  0.40625  0.21875  1.0000
  Zr  Zr324     1.0  0.34375  0.28125  0.09375  1.0000
  Zr  Zr325     1.0  0.28125  0.28125  0.03125  1.0000
  Zr  Zr326     1.0  0.28125  0.40625  0.15625  1.0000
  Zr  Zr327     1.0  0.28125  0.34375  0.09375  1.0000
  Zr  Zr328     1.0  0.28125  0.46875  0.21875  1.0000
  Zr  Zr329     1.0  0.40625  0.28125  0.15625  1.0000
  Zr  Zr330     1.0  0.40625  0.40625  0.03125  1.0000
  Zr  Zr331     1.0  0.40625  0.34375  0.21875  1.0000
  Zr  Zr332     1.0  0.40625  0.46875  0.09375  1.0000
  Zr  Zr333     1.0  0.46875  0.34375  0.15625  1.0000
  Zr  Zr334     1.0  0.46875  0.46875  0.03125  1.0000
  Zr  Zr335     1.0  0.46875  0.40625  0.09375  1.0000
  Zr  Zr336     1.0  0.46875  0.28125  0.21875  1.0000
  O   O1121     1.0  0.37500  0.37500  0.04910  1.0000
  O   O1122     1.0  0.37500  0.25000  0.17410  1.0000
  O   O1123     1.0  0.37500  0.32590  0.00000  1.0000
  O   O1124     1.0  0.37500  0.45090  0.12500  1.0000
  O   O1125     1.0  0.37500  0.37500  0.20090  1.0000
  O   O1126     1.0  0.37500  0.25000  0.07590  1.0000
  O   O1127     1.0  0.37500  0.42410  0.00000  1.0000
  O   O1128     1.0  0.37500  0.29910  0.12500  1.0000
  O   O1129     1.0  0.31250  0.31250  0.01340  1.0000
  O   O1130     1.0  0.31250  0.43750  0.13840  1.0000
  O   O1131     1.0  0.31250  0.26340  0.06250  1.0000
  O   O1132     1.0  0.31250  0.38840  0.18750  1.0000
  O   O1133     1.0  0.31250  0.31250  0.11160  1.0000
  O   O1134     1.0  0.31250  0.43750  0.23660  1.0000
  O   O1135     1.0  0.31250  0.36160  0.06250  1.0000
  O   O1136     1.0  0.31250  0.48660  0.18750  1.0000
  O   O1137     1.0  0.43750  0.31250  0.13840  1.0000
  O   O1138     1.0  0.43750  0.43750  0.01340  1.0000
  O   O1139     1.0  0.43750  0.26340  0.18750  1.0000
  O   O1140     1.0  0.43750  0.38840  0.06250  1.0000
  O   O1141     1.0  0.43750  0.31250  0.23660  1.0000
  O   O1142     1.0  0.43750  0.43750  0.11160  1.0000
  O   O1143     1.0  0.43750  0.36160  0.18750  1.0000
  O   O1144     1.0  0.43750  0.48660  0.06250  1.0000
  O   O1145     1.0  0.25000  0.37500  0.17410  1.0000
  O   O1146     1.0  0.25000  0.25000  0.04910  1.0000
  O   O1147     1.0  0.25000  0.32590  0.12500  1.0000
  O   O1148     1.0  0.25000  0.45090  0.00000  1.0000
  O   O1149     1.0  0.25000  0.37500  0.07590  1.0000
  O   O1150     1.0  0.25000  0.25000  0.20090  1.0000
  O   O1151     1.0  0.25000  0.42410  0.12500  1.0000
  O   O1152     1.0  0.25000  0.29910  0.00000  1.0000
  O   O1153     1.0  0.32590  0.37500  0.00000  1.0000
  O   O1154     1.0  0.32590  0.25000  0.12500  1.0000
  O   O1155     1.0  0.26340  0.31250  0.06250  1.0000
  O   O1156     1.0  0.26340  0.43750  0.18750  1.0000
  O   O1157     1.0  0.38840  0.31250  0.18750  1.0000
  O   O1158     1.0  0.38840  0.43750  0.06250  1.0000
  O   O1159     1.0  0.45090  0.37500  0.12500  1.0000
  O   O1160     1.0  0.45090  0.25000  0.00000  1.0000
  O   O1161     1.0  0.42410  0.37500  0.00000  1.0000
  O   O1162     1.0  0.42410  0.25000  0.12500  1.0000
  O   O1163     1.0  0.36160  0.31250  0.06250  1.0000
  O   O1164     1.0  0.36160  0.43750  0.18750  1.0000
  O   O1165     1.0  0.48660  0.31250  0.18750  1.0000
  O   O1166     1.0  0.48660  0.43750  0.06250  1.0000
  O   O1167     1.0  0.29910  0.37500  0.12500  1.0000
  O   O1168     1.0  0.29910  0.25000  0.00000  1.0000
  O   O1169     1.0  0.37500  0.37500  0.12500  1.0000
  O   O1170     1.0  0.37500  0.25000  0.00000  1.0000
  O   O1171     1.0  0.31250  0.31250  0.18750  1.0000
  O   O1172     1.0  0.31250  0.43750  0.06250  1.0000
  O   O1173     1.0  0.43750  0.31250  0.06250  1.0000
  O   O1174     1.0  0.43750  0.43750  0.18750  1.0000
  O   O1175     1.0  0.25000  0.37500  0.00000  1.0000
  O   O1176     1.0  0.25000  0.25000  0.12500  1.0000
  La  La337     1.0  0.34375  0.34375  0.40625  1.0000
  La  La338     1.0  0.34375  0.46875  0.28125  1.0000
  La  La339     1.0  0.34375  0.40625  0.34375  1.0000
  La  La340     1.0  0.34375  0.28125  0.46875  1.0000
  La  La341     1.0  0.28125  0.28125  0.40625  1.0000
  La  La342     1.0  0.28125  0.40625  0.28125  1.0000
  La  La343     1.0  0.28125  0.34375  0.46875  1.0000
  La  La344     1.0  0.28125  0.46875  0.34375  1.0000
  La  La345     1.0  0.40625  0.28125  0.28125  1.0000
  La  La346     1.0  0.40625  0.40625  0.40625  1.0000
  La  La347     1.0  0.40625  0.34375  0.34375  1.0000
  La  La348     1.0  0.40625  0.46875  0.46875  1.0000
  La  La349     1.0  0.46875  0.34375  0.28125  1.0000
  La  La350     1.0  0.46875  0.46875  0.40625  1.0000
  La  La351     1.0  0.46875  0.40625  0.46875  1.0000
  La  La352     1.0  0.46875  0.28125  0.34375  1.0000
  Zr  Zr337     1.0  0.34375  0.34375  0.28125  1.0000
  Zr  Zr338     1.0  0.34375  0.46875  0.40625  1.0000
  Zr  Zr339     1.0  0.34375  0.40625  0.46875  1.0000
  Zr  Zr340     1.0  0.34375  0.28125  0.34375  1.0000
  Zr  Zr341     1.0  0.28125  0.28125  0.28125  1.0000
  Zr  Zr342     1.0  0.28125  0.40625  0.40625  1.0000
  Zr  Zr343     1.0  0.28125  0.34375  0.34375  1.0000
  Zr  Zr344     1.0  0.28125  0.46875  0.46875  1.0000
  Zr  Zr345     1.0  0.40625  0.28125  0.40625  1.0000
  Zr  Zr346     1.0  0.40625  0.40625  0.28125  1.0000
  Zr  Zr347     1.0  0.40625  0.34375  0.46875  1.0000
  Zr  Zr348     1.0  0.40625  0.46875  0.34375  1.0000
  Zr  Zr349     1.0  0.46875  0.34375  0.40625  1.0000
  Zr  Zr350     1.0  0.46875  0.46875  0.28125  1.0000
  Zr  Zr351     1.0  0.46875  0.40625  0.34375  1.0000
  Zr  Zr352     1.0  0.46875  0.28125  0.46875  1.0000
  O   O1177     1.0  0.37500  0.37500  0.29910  1.0000
  O   O1178     1.0  0.37500  0.25000  0.42410  1.0000
  O   O1179     1.0  0.37500  0.32590  0.25000  1.0000
  O   O1180     1.0  0.37500  0.45090  0.37500  1.0000
  O   O1181     1.0  0.37500  0.37500  0.45090  1.0000
  O   O1182     1.0  0.37500  0.25000  0.32590  1.0000
  O   O1183     1.0  0.37500  0.42410  0.25000  1.0000
  O   O1184     1.0  0.37500  0.29910  0.37500  1.0000
  O   O1185     1.0  0.31250  0.31250  0.26340  1.0000
  O   O1186     1.0  0.31250  0.43750  0.38840  1.0000
  O   O1187     1.0  0.31250  0.26340  0.31250  1.0000
  O   O1188     1.0  0.31250  0.38840  0.43750  1.0000
  O   O1189     1.0  0.31250  0.31250  0.36160  1.0000
  O   O1190     1.0  0.31250  0.43750  0.48660  1.0000
  O   O1191     1.0  0.31250  0.36160  0.31250  1.0000
  O   O1192     1.0  0.31250  0.48660  0.43750  1.0000
  O   O1193     1.0  0.43750  0.31250  0.38840  1.0000
  O   O1194     1.0  0.43750  0.43750  0.26340  1.0000
  O   O1195     1.0  0.43750  0.26340  0.43750  1.0000
  O   O1196     1.0  0.43750  0.38840  0.31250  1.0000
  O   O1197     1.0  0.43750  0.31250  0.48660  1.0000
  O   O1198     1.0  0.43750  0.43750  0.36160  1.0000
  O   O1199     1.0  0.43750  0.36160  0.43750  1.0000
  O   O1200     1.0  0.43750  0.48660  0.31250  1.0000
  O   O1201     1.0  0.25000  0.37500  0.42410  1.0000
  O   O1202     1.0  0.25000  0.25000  0.29910  1.0000
  O   O1203     1.0  0.25000  0.32590  0.37500  1.0000
  O   O1204     1.0  0.25000  0.45090  0.25000  1.0000
  O   O1205     1.0  0.25000  0.37500  0.32590  1.0000
  O   O1206     1.0  0.25000  0.25000  0.45090  1.0000
  O   O1207     1.0  0.25000  0.42410  0.37500  1.0000
  O   O1208     1.0  0.25000  0.29910  0.25000  1.0000
  O   O1209     1.0  0.32590  0.37500  0.25000  1.0000
  O   O1210     1.0  0.32590  0.25000  0.37500  1.0000
  O   O1211     1.0  0.26340  0.31250  0.31250  1.0000
  O   O1212     1.0  0.26340  0.43750  0.43750  1.0000
  O   O1213     1.0  0.38840  0.31250  0.43750  1.0000
  O   O1214     1.0  0.38840  0.43750  0.31250  1.0000
  O   O1215     1.0  0.45090  0.37500  0.37500  1.0000
  O   O1216     1.0  0.45090  0.25000  0.25000  1.0000
  O   O1217     1.0  0.42410  0.37500  0.25000  1.0000
  O   O1218     1.0  0.42410  0.25000  0.37500  1.0000
  O   O1219     1.0  0.36160  0.31250  0.31250  1.0000
  O   O1220     1.0  0.36160  0.43750  0.43750  1.0000
  O   O1221     1.0  0.48660  0.31250  0.43750  1.0000
  O   O1222     1.0  0.48660  0.43750  0.31250  1.0000
  O   O1223     1.0  0.29910  0.37500  0.37500  1.0000
  O   O1224     1.0  0.29910  0.25000  0.25000  1.0000
  O   O1225     1.0  0.37500  0.37500  0.37500  1.0000
  O   O1226     1.0  0.37500  0.25000  0.25000  1.0000
  O   O1227     1.0  0.31250  0.31250  0.43750  1.0000
  O   O1228     1.0  0.31250  0.43750  0.31250  1.0000
  O   O1229     1.0  0.43750  0.31250  0.31250  1.0000
  O   O1230     1.0  0.43750  0.43750  0.43750  1.0000
  O   O1231     1.0  0.25000  0.37500  0.25000  1.0000
  O   O1232     1.0  0.25000  0.25000  0.37500  1.0000
  La  La353     1.0  0.34375  0.34375  0.65625  1.0000
  La  La354     1.0  0.34375  0.46875  0.53125  1.0000
  La  La355     1.0  0.34375  0.40625  0.59375  1.0000
  La  La356     1.0  0.34375  0.28125  0.71875  1.0000
  La  La357     1.0  0.28125  0.28125  0.65625  1.0000
  La  La358     1.0  0.28125  0.40625  0.53125  1.0000
  La  La359     1.0  0.28125  0.34375  0.71875  1.0000
  La  La360     1.0  0.28125  0.46875  0.59375  1.0000
  La  La361     1.0  0.40625  0.28125  0.53125  1.0000
  La  La362     1.0  0.40625  0.40625  0.65625  1.0000
  La  La363     1.0  0.40625  0.34375  0.59375  1.0000
  La  La364     1.0  0.40625  0.46875  0.71875  1.0000
  La  La365     1.0  0.46875  0.34375  0.53125  1.0000
  La  La366     1.0  0.46875  0.46875  0.65625  1.0000
  La  La367     1.0  0.46875  0.40625  0.71875  1.0000
  La  La368     1.0  0.46875  0.28125  0.59375  1.0000
  Zr  Zr353     1.0  0.34375  0.34375  0.53125  1.0000
  Zr  Zr354     1.0  0.34375  0.46875  0.65625  1.0000
  Zr  Zr355     1.0  0.34375  0.40625  0.71875  1.0000
  Zr  Zr356     1.0  0.34375  0.28125  0.59375  1.0000
  Zr  Zr357     1.0  0.28125  0.28125  0.53125  1.0000
  Zr  Zr358     1.0  0.28125  0.40625  0.65625  1.0000
  Zr  Zr359     1.0  0.28125  0.34375  0.59375  1.0000
  Zr  Zr360     1.0  0.28125  0.46875  0.71875  1.0000
  Zr  Zr361     1.0  0.40625  0.28125  0.65625  1.0000
  Zr  Zr362     1.0  0.40625  0.40625  0.53125  1.0000
  Zr  Zr363     1.0  0.40625  0.34375  0.71875  1.0000
  Zr  Zr364     1.0  0.40625  0.46875  0.59375  1.0000
  Zr  Zr365     1.0  0.46875  0.34375  0.65625  1.0000
  Zr  Zr366     1.0  0.46875  0.46875  0.53125  1.0000
  Zr  Zr367     1.0  0.46875  0.40625  0.59375  1.0000
  Zr  Zr368     1.0  0.46875  0.28125  0.71875  1.0000
  O   O1233     1.0  0.37500  0.37500  0.54910  1.0000
  O   O1234     1.0  0.37500  0.25000  0.67410  1.0000
  O   O1235     1.0  0.37500  0.32590  0.50000  1.0000
  O   O1236     1.0  0.37500  0.45090  0.62500  1.0000
  O   O1237     1.0  0.37500  0.37500  0.70090  1.0000
  O   O1238     1.0  0.37500  0.25000  0.57590  1.0000
  O   O1239     1.0  0.37500  0.42410  0.50000  1.0000
  O   O1240     1.0  0.37500  0.29910  0.62500  1.0000
  O   O1241     1.0  0.31250  0.31250  0.51340  1.0000
  O   O1242     1.0  0.31250  0.43750  0.63840  1.0000
  O   O1243     1.0  0.31250  0.26340  0.56250  1.0000
  O   O1244     1.0  0.31250  0.38840  0.68750  1.0000
  O   O1245     1.0  0.31250  0.31250  0.61160  1.0000
  O   O1246     1.0  0.31250  0.43750  0.73660  1.0000
  O   O1247     1.0  0.31250  0.36160  0.56250  1.0000
  O   O1248     1.0  0.31250  0.48660  0.68750  1.0000
  O   O1249     1.0  0.43750  0.31250  0.63840  1.0000
  O   O1250     1.0  0.43750  0.43750  0.51340  1.0000
  O   O1251     1.0  0.43750  0.26340  0.68750  1.0000
  O   O1252     1.0  0.43750  0.38840  0.56250  1.0000
  O   O1253     1.0  0.43750  0.31250  0.73660  1.0000
  O   O1254     1.0  0.43750  0.43750  0.61160  1.0000
  O   O1255     1.0  0.43750  0.36160  0.68750  1.0000
  O   O1256     1.0  0.43750  0.48660  0.56250  1.0000
  O   O1257     1.0  0.25000  0.37500  0.67410  1.0000
  O   O1258     1.0  0.25000  0.25000  0.54910  1.0000
  O   O1259     1.0  0.25000  0.32590  0.62500  1.0000
  O   O1260     1.0  0.25000  0.45090  0.50000  1.0000
  O   O1261     1.0  0.25000  0.37500  0.57590  1.0000
  O   O1262     1.0  0.25000  0.25000  0.70090  1.0000
  O   O1263     1.0  0.25000  0.42410  0.62500  1.0000
  O   O1264     1.0  0.25000  0.29910  0.50000  1.0000
  O   O1265     1.0  0.32590  0.37500  0.50000  1.0000
  O   O1266     1.0  0.32590  0.25000  0.62500  1.0000
  O   O1267     1.0  0.26340  0.31250  0.56250  1.0000
  O   O1268     1.0  0.26340  0.43750  0.68750  1.0000
  O   O1269     1.0  0.38840  0.31250  0.68750  1.0000
  O   O1270     1.0  0.38840  0.43750  0.56250  1.0000
  O   O1271     1.0  0.45090  0.37500  0.62500  1.0000
  O   O1272     1.0  0.45090  0.25000  0.50000  1.0000
  O   O1273     1.0  0.42410  0.37500  0.50000  1.0000
  O   O1274     1.0  0.42410  0.25000  0.62500  1.0000
  O   O1275     1.0  0.36160  0.31250  0.56250  1.0000
  O   O1276     1.0  0.36160  0.43750  0.68750  1.0000
  O   O1277     1.0  0.48660  0.31250  0.68750  1.0000
  O   O1278     1.0  0.48660  0.43750  0.56250  1.0000
  O   O1279     1.0  0.29910  0.37500  0.62500  1.0000
  O   O1280     1.0  0.29910  0.25000  0.50000  1.0000
  O   O1281     1.0  0.37500  0.37500  0.62500  1.0000
  O   O1282     1.0  0.37500  0.25000  0.50000  1.0000
  O   O1283     1.0  0.31250  0.31250  0.68750  1.0000
  O   O1284     1.0  0.31250  0.43750  0.56250  1.0000
  O   O1285     1.0  0.43750  0.31250  0.56250  1.0000
  O   O1286     1.0  0.43750  0.43750  0.68750  1.0000
  O   O1287     1.0  0.25000  0.37500  0.50000  1.0000
  O   O1288     1.0  0.25000  0.25000  0.62500  1.0000
  La  La369     1.0  0.34375  0.34375  0.90625  1.0000
  La  La370     1.0  0.34375  0.46875  0.78125  1.0000
  La  La371     1.0  0.34375  0.40625  0.84375  1.0000
  La  La372     1.0  0.34375  0.28125  0.96875  1.0000
  La  La373     1.0  0.28125  0.28125  0.90625  1.0000
  La  La374     1.0  0.28125  0.40625  0.78125  1.0000
  La  La375     1.0  0.28125  0.34375  0.96875  1.0000
  La  La376     1.0  0.28125  0.46875  0.84375  1.0000
  La  La377     1.0  0.40625  0.28125  0.78125  1.0000
  La  La378     1.0  0.40625  0.40625  0.90625  1.0000
  La  La379     1.0  0.40625  0.34375  0.84375  1.0000
  La  La380     1.0  0.40625  0.46875  0.96875  1.0000
  La  La381     1.0  0.46875  0.34375  0.78125  1.0000
  La  La382     1.0  0.46875  0.46875  0.90625  1.0000
  La  La383     1.0  0.46875  0.40625  0.96875  1.0000
  La  La384     1.0  0.46875  0.28125  0.84375  1.0000
  Zr  Zr369     1.0  0.34375  0.34375  0.78125  1.0000
  Zr  Zr370     1.0  0.34375  0.46875  0.90625  1.0000
  Zr  Zr371     1.0  0.34375  0.40625  0.96875  1.0000
  Zr  Zr372     1.0  0.34375  0.28125  0.84375  1.0000
  Zr  Zr373     1.0  0.28125  0.28125  0.78125  1.0000
  Zr  Zr374     1.0  0.28125  0.40625  0.90625  1.0000
  Zr  Zr375     1.0  0.28125  0.34375  0.84375  1.0000
  Zr  Zr376     1.0  0.28125  0.46875  0.96875  1.0000
  Zr  Zr377     1.0  0.40625  0.28125  0.90625  1.0000
  Zr  Zr378     1.0  0.40625  0.40625  0.78125  1.0000
  Zr  Zr379     1.0  0.40625  0.34375  0.96875  1.0000
  Zr  Zr380     1.0  0.40625  0.46875  0.84375  1.0000
  Zr  Zr381     1.0  0.46875  0.34375  0.90625  1.0000
  Zr  Zr382     1.0  0.46875  0.46875  0.78125  1.0000
  Zr  Zr383     1.0  0.46875  0.40625  0.84375  1.0000
  Zr  Zr384     1.0  0.46875  0.28125  0.96875  1.0000
  O   O1289     1.0  0.37500  0.37500  0.79910  1.0000
  O   O1290     1.0  0.37500  0.25000  0.92410  1.0000
  O   O1291     1.0  0.37500  0.32590  0.75000  1.0000
  O   O1292     1.0  0.37500  0.45090  0.87500  1.0000
  O   O1293     1.0  0.37500  0.37500  0.95090  1.0000
  O   O1294     1.0  0.37500  0.25000  0.82590  1.0000
  O   O1295     1.0  0.37500  0.42410  0.75000  1.0000
  O   O1296     1.0  0.37500  0.29910  0.87500  1.0000
  O   O1297     1.0  0.31250  0.31250  0.76340  1.0000
  O   O1298     1.0  0.31250  0.43750  0.88840  1.0000
  O   O1299     1.0  0.31250  0.26340  0.81250  1.0000
  O   O1300     1.0  0.31250  0.38840  0.93750  1.0000
  O   O1301     1.0  0.31250  0.31250  0.86160  1.0000
  O   O1302     1.0  0.31250  0.43750  0.98660  1.0000
  O   O1303     1.0  0.31250  0.36160  0.81250  1.0000
  O   O1304     1.0  0.31250  0.48660  0.93750  1.0000
  O   O1305     1.0  0.43750  0.31250  0.88840  1.0000
  O   O1306     1.0  0.43750  0.43750  0.76340  1.0000
  O   O1307     1.0  0.43750  0.26340  0.93750  1.0000
  O   O1308     1.0  0.43750  0.38840  0.81250  1.0000
  O   O1309     1.0  0.43750  0.31250  0.98660  1.0000
  O   O1310     1.0  0.43750  0.43750  0.86160  1.0000
  O   O1311     1.0  0.43750  0.36160  0.93750  1.0000
  O   O1312     1.0  0.43750  0.48660  0.81250  1.0000
  O   O1313     1.0  0.25000  0.37500  0.92410  1.0000
  O   O1314     1.0  0.25000  0.25000  0.79910  1.0000
  O   O1315     1.0  0.25000  0.32590  0.87500  1.0000
  O   O1316     1.0  0.25000  0.45090  0.75000  1.0000
  O   O1317     1.0  0.25000  0.37500  0.82590  1.0000
  O   O1318     1.0  0.25000  0.25000  0.95090  1.0000
  O   O1319     1.0  0.25000  0.42410  0.87500  1.0000
  O   O1320     1.0  0.25000  0.29910  0.75000  1.0000
  O   O1321     1.0  0.32590  0.37500  0.75000  1.0000
  O   O1322     1.0  0.32590  0.25000  0.87500  1.0000
  O   O1323     1.0  0.26340  0.31250  0.81250  1.0000
  O   O1324     1.0  0.26340  0.43750  0.93750  1.0000
  O   O1325     1.0  0.38840  0.31250  0.93750  1.0000
  O   O1326     1.0  0.38840  0.43750  0.81250  1.0000
  O   O1327     1.0  0.45090  0.37500  0.87500  1.0000
  O   O1328     1.0  0.45090  0.25000  0.75000  1.0000
  O   O1329     1.0  0.42410  0.37500  0.75000  1.0000
  O   O1330     1.0  0.42410  0.25000  0.87500  1.0000
  O   O1331     1.0  0.36160  0.31250  0.81250  1.0000
  O   O1332     1.0  0.36160  0.43750  0.93750  1.0000
  O   O1333     1.0  0.48660  0.31250  0.93750  1.0000
  O   O1334     1.0  0.48660  0.43750  0.81250  1.0000
  O   O1335     1.0  0.29910  0.37500  0.87500  1.0000
  O   O1336     1.0  0.29910  0.25000  0.75000  1.0000
  O   O1337     1.0  0.37500  0.37500  0.87500  1.0000
  O   O1338     1.0  0.37500  0.25000  0.75000  1.0000
  O   O1339     1.0  0.31250  0.31250  0.93750  1.0000
  O   O1340     1.0  0.31250  0.43750  0.81250  1.0000
  O   O1341     1.0  0.43750  0.31250  0.81250  1.0000
  O   O1342     1.0  0.43750  0.43750  0.93750  1.0000
  O   O1343     1.0  0.25000  0.37500  0.75000  1.0000
  O   O1344     1.0  0.25000  0.25000  0.87500  1.0000
  La  La385     1.0  0.34375  0.59375  0.15625  1.0000
  La  La386     1.0  0.34375  0.71875  0.03125  1.0000
  La  La387     1.0  0.34375  0.65625  0.09375  1.0000
  La  La388     1.0  0.34375  0.53125  0.21875  1.0000
  La  La389     1.0  0.28125  0.53125  0.15625  1.0000
  La  La390     1.0  0.28125  0.65625  0.03125  1.0000
  La  La391     1.0  0.28125  0.59375  0.21875  1.0000
  La  La392     1.0  0.28125  0.71875  0.09375  1.0000
  La  La393     1.0  0.40625  0.53125  0.03125  1.0000
  La  La394     1.0  0.40625  0.65625  0.15625  1.0000
  La  La395     1.0  0.40625  0.59375  0.09375  1.0000
  La  La396     1.0  0.40625  0.71875  0.21875  1.0000
  La  La397     1.0  0.46875  0.59375  0.03125  1.0000
  La  La398     1.0  0.46875  0.71875  0.15625  1.0000
  La  La399     1.0  0.46875  0.65625  0.21875  1.0000
  La  La400     1.0  0.46875  0.53125  0.09375  1.0000
  Zr  Zr385     1.0  0.34375  0.59375  0.03125  1.0000
  Zr  Zr386     1.0  0.34375  0.71875  0.15625  1.0000
  Zr  Zr387     1.0  0.34375  0.65625  0.21875  1.0000
  Zr  Zr388     1.0  0.34375  0.53125  0.09375  1.0000
  Zr  Zr389     1.0  0.28125  0.53125  0.03125  1.0000
  Zr  Zr390     1.0  0.28125  0.65625  0.15625  1.0000
  Zr  Zr391     1.0  0.28125  0.59375  0.09375  1.0000
  Zr  Zr392     1.0  0.28125  0.71875  0.21875  1.0000
  Zr  Zr393     1.0  0.40625  0.53125  0.15625  1.0000
  Zr  Zr394     1.0  0.40625  0.65625  0.03125  1.0000
  Zr  Zr395     1.0  0.40625  0.59375  0.21875  1.0000
  Zr  Zr396     1.0  0.40625  0.71875  0.09375  1.0000
  Zr  Zr397     1.0  0.46875  0.59375  0.15625  1.0000
  Zr  Zr398     1.0  0.46875  0.71875  0.03125  1.0000
  Zr  Zr399     1.0  0.46875  0.65625  0.09375  1.0000
  Zr  Zr400     1.0  0.46875  0.53125  0.21875  1.0000
  O   O1345     1.0  0.37500  0.62500  0.04910  1.0000
  O   O1346     1.0  0.37500  0.50000  0.17410  1.0000
  O   O1347     1.0  0.37500  0.57590  0.00000  1.0000
  O   O1348     1.0  0.37500  0.70090  0.12500  1.0000
  O   O1349     1.0  0.37500  0.62500  0.20090  1.0000
  O   O1350     1.0  0.37500  0.50000  0.07590  1.0000
  O   O1351     1.0  0.37500  0.67410  0.00000  1.0000
  O   O1352     1.0  0.37500  0.54910  0.12500  1.0000
  O   O1353     1.0  0.31250  0.56250  0.01340  1.0000
  O   O1354     1.0  0.31250  0.68750  0.13840  1.0000
  O   O1355     1.0  0.31250  0.51340  0.06250  1.0000
  O   O1356     1.0  0.31250  0.63840  0.18750  1.0000
  O   O1357     1.0  0.31250  0.56250  0.11160  1.0000
  O   O1358     1.0  0.31250  0.68750  0.23660  1.0000
  O   O1359     1.0  0.31250  0.61160  0.06250  1.0000
  O   O1360     1.0  0.31250  0.73660  0.18750  1.0000
  O   O1361     1.0  0.43750  0.56250  0.13840  1.0000
  O   O1362     1.0  0.43750  0.68750  0.01340  1.0000
  O   O1363     1.0  0.43750  0.51340  0.18750  1.0000
  O   O1364     1.0  0.43750  0.63840  0.06250  1.0000
  O   O1365     1.0  0.43750  0.56250  0.23660  1.0000
  O   O1366     1.0  0.43750  0.68750  0.11160  1.0000
  O   O1367     1.0  0.43750  0.61160  0.18750  1.0000
  O   O1368     1.0  0.43750  0.73660  0.06250  1.0000
  O   O1369     1.0  0.25000  0.62500  0.17410  1.0000
  O   O1370     1.0  0.25000  0.50000  0.04910  1.0000
  O   O1371     1.0  0.25000  0.57590  0.12500  1.0000
  O   O1372     1.0  0.25000  0.70090  0.00000  1.0000
  O   O1373     1.0  0.25000  0.62500  0.07590  1.0000
  O   O1374     1.0  0.25000  0.50000  0.20090  1.0000
  O   O1375     1.0  0.25000  0.67410  0.12500  1.0000
  O   O1376     1.0  0.25000  0.54910  0.00000  1.0000
  O   O1377     1.0  0.32590  0.62500  0.00000  1.0000
  O   O1378     1.0  0.32590  0.50000  0.12500  1.0000
  O   O1379     1.0  0.26340  0.56250  0.06250  1.0000
  O   O1380     1.0  0.26340  0.68750  0.18750  1.0000
  O   O1381     1.0  0.38840  0.56250  0.18750  1.0000
  O   O1382     1.0  0.38840  0.68750  0.06250  1.0000
  O   O1383     1.0  0.45090  0.62500  0.12500  1.0000
  O   O1384     1.0  0.45090  0.50000  0.00000  1.0000
  O   O1385     1.0  0.42410  0.62500  0.00000  1.0000
  O   O1386     1.0  0.42410  0.50000  0.12500  1.0000
  O   O1387     1.0  0.36160  0.56250  0.06250  1.0000
  O   O1388     1.0  0.36160  0.68750  0.18750  1.0000
  O   O1389     1.0  0.48660  0.56250  0.18750  1.0000
  O   O1390     1.0  0.48660  0.68750  0.06250  1.0000
  O   O1391     1.0  0.29910  0.62500  0.12500  1.0000
  O   O1392     1.0  0.29910  0.50000  0.00000  1.0000
  O   O1393     1.0  0.37500  0.62500  0.12500  1.0000
  O   O1394     1.0  0.37500  0.50000  0.00000  1.0000
  O   O1395     1.0  0.31250  0.56250  0.18750  1.0000
  O   O1396     1.0  0.31250  0.68750  0.06250  1.0000
  O   O1397     1.0  0.43750  0.56250  0.06250  1.0000
  O   O1398     1.0  0.43750  0.68750  0.18750  1.0000
  O   O1399     1.0  0.25000  0.62500  0.00000  1.0000
  O   O1400     1.0  0.25000  0.50000  0.12500  1.0000
  La  La401     1.0  0.34375  0.59375  0.40625  1.0000
  La  La402     1.0  0.34375  0.71875  0.28125  1.0000
  La  La403     1.0  0.34375  0.65625  0.34375  1.0000
  La  La404     1.0  0.34375  0.53125  0.46875  1.0000
  La  La405     1.0  0.28125  0.53125  0.40625  1.0000
  La  La406     1.0  0.28125  0.65625  0.28125  1.0000
  La  La407     1.0  0.28125  0.59375  0.46875  1.0000
  La  La408     1.0  0.28125  0.71875  0.34375  1.0000
  La  La409     1.0  0.40625  0.53125  0.28125  1.0000
  La  La410     1.0  0.40625  0.65625  0.40625  1.0000
  La  La411     1.0  0.40625  0.59375  0.34375  1.0000
  La  La412     1.0  0.40625  0.71875  0.46875  1.0000
  La  La413     1.0  0.46875  0.59375  0.28125  1.0000
  La  La414     1.0  0.46875  0.71875  0.40625  1.0000
  La  La415     1.0  0.46875  0.65625  0.46875  1.0000
  La  La416     1.0  0.46875  0.53125  0.34375  1.0000
  Zr  Zr401     1.0  0.34375  0.59375  0.28125  1.0000
  Zr  Zr402     1.0  0.34375  0.71875  0.40625  1.0000
  Zr  Zr403     1.0  0.34375  0.65625  0.46875  1.0000
  Zr  Zr404     1.0  0.34375  0.53125  0.34375  1.0000
  Zr  Zr405     1.0  0.28125  0.53125  0.28125  1.0000
  Zr  Zr406     1.0  0.28125  0.65625  0.40625  1.0000
  Zr  Zr407     1.0  0.28125  0.59375  0.34375  1.0000
  Zr  Zr408     1.0  0.28125  0.71875  0.46875  1.0000
  Zr  Zr409     1.0  0.40625  0.53125  0.40625  1.0000
  Zr  Zr410     1.0  0.40625  0.65625  0.28125  1.0000
  Zr  Zr411     1.0  0.40625  0.59375  0.46875  1.0000
  Zr  Zr412     1.0  0.40625  0.71875  0.34375  1.0000
  Zr  Zr413     1.0  0.46875  0.59375  0.40625  1.0000
  Zr  Zr414     1.0  0.46875  0.71875  0.28125  1.0000
  Zr  Zr415     1.0  0.46875  0.65625  0.34375  1.0000
  Zr  Zr416     1.0  0.46875  0.53125  0.46875  1.0000
  O   O1401     1.0  0.37500  0.62500  0.29910  1.0000
  O   O1402     1.0  0.37500  0.50000  0.42410  1.0000
  O   O1403     1.0  0.37500  0.57590  0.25000  1.0000
  O   O1404     1.0  0.37500  0.70090  0.37500  1.0000
  O   O1405     1.0  0.37500  0.62500  0.45090  1.0000
  O   O1406     1.0  0.37500  0.50000  0.32590  1.0000
  O   O1407     1.0  0.37500  0.67410  0.25000  1.0000
  O   O1408     1.0  0.37500  0.54910  0.37500  1.0000
  O   O1409     1.0  0.31250  0.56250  0.26340  1.0000
  O   O1410     1.0  0.31250  0.68750  0.38840  1.0000
  O   O1411     1.0  0.31250  0.51340  0.31250  1.0000
  O   O1412     1.0  0.31250  0.63840  0.43750  1.0000
  O   O1413     1.0  0.31250  0.56250  0.36160  1.0000
  O   O1414     1.0  0.31250  0.68750  0.48660  1.0000
  O   O1415     1.0  0.31250  0.61160  0.31250  1.0000
  O   O1416     1.0  0.31250  0.73660  0.43750  1.0000
  O   O1417     1.0  0.43750  0.56250  0.38840  1.0000
  O   O1418     1.0  0.43750  0.68750  0.26340  1.0000
  O   O1419     1.0  0.43750  0.51340  0.43750  1.0000
  O   O1420     1.0  0.43750  0.63840  0.31250  1.0000
  O   O1421     1.0  0.43750  0.56250  0.48660  1.0000
  O   O1422     1.0  0.43750  0.68750  0.36160  1.0000
  O   O1423     1.0  0.43750  0.61160  0.43750  1.0000
  O   O1424     1.0  0.43750  0.73660  0.31250  1.0000
  O   O1425     1.0  0.25000  0.62500  0.42410  1.0000
  O   O1426     1.0  0.25000  0.50000  0.29910  1.0000
  O   O1427     1.0  0.25000  0.57590  0.37500  1.0000
  O   O1428     1.0  0.25000  0.70090  0.25000  1.0000
  O   O1429     1.0  0.25000  0.62500  0.32590  1.0000
  O   O1430     1.0  0.25000  0.50000  0.45090  1.0000
  O   O1431     1.0  0.25000  0.67410  0.37500  1.0000
  O   O1432     1.0  0.25000  0.54910  0.25000  1.0000
  O   O1433     1.0  0.32590  0.62500  0.25000  1.0000
  O   O1434     1.0  0.32590  0.50000  0.37500  1.0000
  O   O1435     1.0  0.26340  0.56250  0.31250  1.0000
  O   O1436     1.0  0.26340  0.68750  0.43750  1.0000
  O   O1437     1.0  0.38840  0.56250  0.43750  1.0000
  O   O1438     1.0  0.38840  0.68750  0.31250  1.0000
  O   O1439     1.0  0.45090  0.62500  0.37500  1.0000
  O   O1440     1.0  0.45090  0.50000  0.25000  1.0000
  O   O1441     1.0  0.42410  0.62500  0.25000  1.0000
  O   O1442     1.0  0.42410  0.50000  0.37500  1.0000
  O   O1443     1.0  0.36160  0.56250  0.31250  1.0000
  O   O1444     1.0  0.36160  0.68750  0.43750  1.0000
  O   O1445     1.0  0.48660  0.56250  0.43750  1.0000
  O   O1446     1.0  0.48660  0.68750  0.31250  1.0000
  O   O1447     1.0  0.29910  0.62500  0.37500  1.0000
  O   O1448     1.0  0.29910  0.50000  0.25000  1.0000
  O   O1449     1.0  0.37500  0.62500  0.37500  1.0000
  O   O1450     1.0  0.37500  0.50000  0.25000  1.0000
  O   O1451     1.0  0.31250  0.56250  0.43750  1.0000
  O   O1452     1.0  0.31250  0.68750  0.31250  1.0000
  O   O1453     1.0  0.43750  0.56250  0.31250  1.0000
  O   O1454     1.0  0.43750  0.68750  0.43750  1.0000
  O   O1455     1.0  0.25000  0.62500  0.25000  1.0000
  O   O1456     1.0  0.25000  0.50000  0.37500  1.0000
  La  La417     1.0  0.34375  0.59375  0.65625  1.0000
  La  La418     1.0  0.34375  0.71875  0.53125  1.0000
  La  La419     1.0  0.34375  0.65625  0.59375  1.0000
  La  La420     1.0  0.34375  0.53125  0.71875  1.0000
  La  La421     1.0  0.28125  0.53125  0.65625  1.0000
  La  La422     1.0  0.28125  0.65625  0.53125  1.0000
  La  La423     1.0  0.28125  0.59375  0.71875  1.0000
  La  La424     1.0  0.28125  0.71875  0.59375  1.0000
  La  La425     1.0  0.40625  0.53125  0.53125  1.0000
  La  La426     1.0  0.40625  0.65625  0.65625  1.0000
  La  La427     1.0  0.40625  0.59375  0.59375  1.0000
  La  La428     1.0  0.40625  0.71875  0.71875  1.0000
  La  La429     1.0  0.46875  0.59375  0.53125  1.0000
  La  La430     1.0  0.46875  0.71875  0.65625  1.0000
  La  La431     1.0  0.46875  0.65625  0.71875  1.0000
  La  La432     1.0  0.46875  0.53125  0.59375  1.0000
  Zr  Zr417     1.0  0.34375  0.59375  0.53125  1.0000
  Zr  Zr418     1.0  0.34375  0.71875  0.65625  1.0000
  Zr  Zr419     1.0  0.34375  0.65625  0.71875  1.0000
  Zr  Zr420     1.0  0.34375  0.53125  0.59375  1.0000
  Zr  Zr421     1.0  0.28125  0.53125  0.53125  1.0000
  Zr  Zr422     1.0  0.28125  0.65625  0.65625  1.0000
  Zr  Zr423     1.0  0.28125  0.59375  0.59375  1.0000
  Zr  Zr424     1.0  0.28125  0.71875  0.71875  1.0000
  Zr  Zr425     1.0  0.40625  0.53125  0.65625  1.0000
  Zr  Zr426     1.0  0.40625  0.65625  0.53125  1.0000
  Zr  Zr427     1.0  0.40625  0.59375  0.71875  1.0000
  Zr  Zr428     1.0  0.40625  0.71875  0.59375  1.0000
  Zr  Zr429     1.0  0.46875  0.59375  0.65625  1.0000
  Zr  Zr430     1.0  0.46875  0.71875  0.53125  1.0000
  Zr  Zr431     1.0  0.46875  0.65625  0.59375  1.0000
  Zr  Zr432     1.0  0.46875  0.53125  0.71875  1.0000
  O   O1457     1.0  0.37500  0.62500  0.54910  1.0000
  O   O1458     1.0  0.37500  0.50000  0.67410  1.0000
  O   O1459     1.0  0.37500  0.57590  0.50000  1.0000
  O   O1460     1.0  0.37500  0.70090  0.62500  1.0000
  O   O1461     1.0  0.37500  0.62500  0.70090  1.0000
  O   O1462     1.0  0.37500  0.50000  0.57590  1.0000
  O   O1463     1.0  0.37500  0.67410  0.50000  1.0000
  O   O1464     1.0  0.37500  0.54910  0.62500  1.0000
  O   O1465     1.0  0.31250  0.56250  0.51340  1.0000
  O   O1466     1.0  0.31250  0.68750  0.63840  1.0000
  O   O1467     1.0  0.31250  0.51340  0.56250  1.0000
  O   O1468     1.0  0.31250  0.63840  0.68750  1.0000
  O   O1469     1.0  0.31250  0.56250  0.61160  1.0000
  O   O1470     1.0  0.31250  0.68750  0.73660  1.0000
  O   O1471     1.0  0.31250  0.61160  0.56250  1.0000
  O   O1472     1.0  0.31250  0.73660  0.68750  1.0000
  O   O1473     1.0  0.43750  0.56250  0.63840  1.0000
  O   O1474     1.0  0.43750  0.68750  0.51340  1.0000
  O   O1475     1.0  0.43750  0.51340  0.68750  1.0000
  O   O1476     1.0  0.43750  0.63840  0.56250  1.0000
  O   O1477     1.0  0.43750  0.56250  0.73660  1.0000
  O   O1478     1.0  0.43750  0.68750  0.61160  1.0000
  O   O1479     1.0  0.43750  0.61160  0.68750  1.0000
  O   O1480     1.0  0.43750  0.73660  0.56250  1.0000
  O   O1481     1.0  0.25000  0.62500  0.67410  1.0000
  O   O1482     1.0  0.25000  0.50000  0.54910  1.0000
  O   O1483     1.0  0.25000  0.57590  0.62500  1.0000
  O   O1484     1.0  0.25000  0.70090  0.50000  1.0000
  O   O1485     1.0  0.25000  0.62500  0.57590  1.0000
  O   O1486     1.0  0.25000  0.50000  0.70090  1.0000
  O   O1487     1.0  0.25000  0.67410  0.62500  1.0000
  O   O1488     1.0  0.25000  0.54910  0.50000  1.0000
  O   O1489     1.0  0.32590  0.62500  0.50000  1.0000
  O   O1490     1.0  0.32590  0.50000  0.62500  1.0000
  O   O1491     1.0  0.26340  0.56250  0.56250  1.0000
  O   O1492     1.0  0.26340  0.68750  0.68750  1.0000
  O   O1493     1.0  0.38840  0.56250  0.68750  1.0000
  O   O1494     1.0  0.38840  0.68750  0.56250  1.0000
  O   O1495     1.0  0.45090  0.62500  0.62500  1.0000
  O   O1496     1.0  0.45090  0.50000  0.50000  1.0000
  O   O1497     1.0  0.42410  0.62500  0.50000  1.0000
  O   O1498     1.0  0.42410  0.50000  0.62500  1.0000
  O   O1499     1.0  0.36160  0.56250  0.56250  1.0000
  O   O1500     1.0  0.36160  0.68750  0.68750  1.0000
  O   O1501     1.0  0.48660  0.56250  0.68750  1.0000
  O   O1502     1.0  0.48660  0.68750  0.56250  1.0000
  O   O1503     1.0  0.29910  0.62500  0.62500  1.0000
  O   O1504     1.0  0.29910  0.50000  0.50000  1.0000
  O   O1505     1.0  0.37500  0.62500  0.62500  1.0000
  O   O1506     1.0  0.37500  0.50000  0.50000  1.0000
  O   O1507     1.0  0.31250  0.56250  0.68750  1.0000
  O   O1508     1.0  0.31250  0.68750  0.56250  1.0000
  O   O1509     1.0  0.43750  0.56250  0.56250  1.0000
  O   O1510     1.0  0.43750  0.68750  0.68750  1.0000
  O   O1511     1.0  0.25000  0.62500  0.50000  1.0000
  O   O1512     1.0  0.25000  0.50000  0.62500  1.0000
  La  La433     1.0  0.34375  0.59375  0.90625  1.0000
  La  La434     1.0  0.34375  0.71875  0.78125  1.0000
  La  La435     1.0  0.34375  0.65625  0.84375  1.0000
  La  La436     1.0  0.34375  0.53125  0.96875  1.0000
  La  La437     1.0  0.28125  0.53125  0.90625  1.0000
  La  La438     1.0  0.28125  0.65625  0.78125  1.0000
  La  La439     1.0  0.28125  0.59375  0.96875  1.0000
  La  La440     1.0  0.28125  0.71875  0.84375  1.0000
  La  La441     1.0  0.40625  0.53125  0.78125  1.0000
  La  La442     1.0  0.40625  0.65625  0.90625  1.0000
  La  La443     1.0  0.40625  0.59375  0.84375  1.0000
  La  La444     1.0  0.40625  0.71875  0.96875  1.0000
  La  La445     1.0  0.46875  0.59375  0.78125  1.0000
  La  La446     1.0  0.46875  0.71875  0.90625  1.0000
  La  La447     1.0  0.46875  0.65625  0.96875  1.0000
  La  La448     1.0  0.46875  0.53125  0.84375  1.0000
  Zr  Zr433     1.0  0.34375  0.59375  0.78125  1.0000
  Zr  Zr434     1.0  0.34375  0.71875  0.90625  1.0000
  Zr  Zr435     1.0  0.34375  0.65625  0.96875  1.0000
  Zr  Zr436     1.0  0.34375  0.53125  0.84375  1.0000
  Zr  Zr437     1.0  0.28125  0.53125  0.78125  1.0000
  Zr  Zr438     1.0  0.28125  0.65625  0.90625  1.0000
  Zr  Zr439     1.0  0.28125  0.59375  0.84375  1.0000
  Zr  Zr440     1.0  0.28125  0.71875  0.96875  1.0000
  Zr  Zr441     1.0  0.40625  0.53125  0.90625  1.0000
  Zr  Zr442     1.0  0.40625  0.65625  0.78125  1.0000
  Zr  Zr443     1.0  0.40625  0.59375  0.96875  1.0000
  Zr  Zr444     1.0  0.40625  0.71875  0.84375  1.0000
  Zr  Zr445     1.0  0.46875  0.59375  0.90625  1.0000
  Zr  Zr446     1.0  0.46875  0.71875  0.78125  1.0000
  Zr  Zr447     1.0  0.46875  0.65625  0.84375  1.0000
  Zr  Zr448     1.0  0.46875  0.53125  0.96875  1.0000
  O   O1513     1.0  0.37500  0.62500  0.79910  1.0000
  O   O1514     1.0  0.37500  0.50000  0.92410  1.0000
  O   O1515     1.0  0.37500  0.57590  0.75000  1.0000
  O   O1516     1.0  0.37500  0.70090  0.87500  1.0000
  O   O1517     1.0  0.37500  0.62500  0.95090  1.0000
  O   O1518     1.0  0.37500  0.50000  0.82590  1.0000
  O   O1519     1.0  0.37500  0.67410  0.75000  1.0000
  O   O1520     1.0  0.37500  0.54910  0.87500  1.0000
  O   O1521     1.0  0.31250  0.56250  0.76340  1.0000
  O   O1522     1.0  0.31250  0.68750  0.88840  1.0000
  O   O1523     1.0  0.31250  0.51340  0.81250  1.0000
  O   O1524     1.0  0.31250  0.63840  0.93750  1.0000
  O   O1525     1.0  0.31250  0.56250  0.86160  1.0000
  O   O1526     1.0  0.31250  0.68750  0.98660  1.0000
  O   O1527     1.0  0.31250  0.61160  0.81250  1.0000
  O   O1528     1.0  0.31250  0.73660  0.93750  1.0000
  O   O1529     1.0  0.43750  0.56250  0.88840  1.0000
  O   O1530     1.0  0.43750  0.68750  0.76340  1.0000
  O   O1531     1.0  0.43750  0.51340  0.93750  1.0000
  O   O1532     1.0  0.43750  0.63840  0.81250  1.0000
  O   O1533     1.0  0.43750  0.56250  0.98660  1.0000
  O   O1534     1.0  0.43750  0.68750  0.86160  1.0000
  O   O1535     1.0  0.43750  0.61160  0.93750  1.0000
  O   O1536     1.0  0.43750  0.73660  0.81250  1.0000
  O   O1537     1.0  0.25000  0.62500  0.92410  1.0000
  O   O1538     1.0  0.25000  0.50000  0.79910  1.0000
  O   O1539     1.0  0.25000  0.57590  0.87500  1.0000
  O   O1540     1.0  0.25000  0.70090  0.75000  1.0000
  O   O1541     1.0  0.25000  0.62500  0.82590  1.0000
  O   O1542     1.0  0.25000  0.50000  0.95090  1.0000
  O   O1543     1.0  0.25000  0.67410  0.87500  1.0000
  O   O1544     1.0  0.25000  0.54910  0.75000  1.0000
  O   O1545     1.0  0.32590  0.62500  0.75000  1.0000
  O   O1546     1.0  0.32590  0.50000  0.87500  1.0000
  O   O1547     1.0  0.26340  0.56250  0.81250  1.0000
  O   O1548     1.0  0.26340  0.68750  0.93750  1.0000
  O   O1549     1.0  0.38840  0.56250  0.93750  1.0000
  O   O1550     1.0  0.38840  0.68750  0.81250  1.0000
  O   O1551     1.0  0.45090  0.62500  0.87500  1.0000
  O   O1552     1.0  0.45090  0.50000  0.75000  1.0000
  O   O1553     1.0  0.42410  0.62500  0.75000  1.0000
  O   O1554     1.0  0.42410  0.50000  0.87500  1.0000
  O   O1555     1.0  0.36160  0.56250  0.81250  1.0000
  O   O1556     1.0  0.36160  0.68750  0.93750  1.0000
  O   O1557     1.0  0.48660  0.56250  0.93750  1.0000
  O   O1558     1.0  0.48660  0.68750  0.81250  1.0000
  O   O1559     1.0  0.29910  0.62500  0.87500  1.0000
  O   O1560     1.0  0.29910  0.50000  0.75000  1.0000
  O   O1561     1.0  0.37500  0.62500  0.87500  1.0000
  O   O1562     1.0  0.37500  0.50000  0.75000  1.0000
  O   O1563     1.0  0.31250  0.56250  0.93750  1.0000
  O   O1564     1.0  0.31250  0.68750  0.81250  1.0000
  O   O1565     1.0  0.43750  0.56250  0.81250  1.0000
  O   O1566     1.0  0.43750  0.68750  0.93750  1.0000
  O   O1567     1.0  0.25000  0.62500  0.75000  1.0000
  O   O1568     1.0  0.25000  0.50000  0.87500  1.0000
  La  La449     1.0  0.34375  0.84375  0.15625  1.0000
  La  La450     1.0  0.34375  0.96875  0.03125  1.0000
  La  La451     1.0  0.34375  0.90625  0.09375  1.0000
  La  La452     1.0  0.34375  0.78125  0.21875  1.0000
  La  La453     1.0  0.28125  0.78125  0.15625  1.0000
  La  La454     1.0  0.28125  0.90625  0.03125  1.0000
  La  La455     1.0  0.28125  0.84375  0.21875  1.0000
  La  La456     1.0  0.28125  0.96875  0.09375  1.0000
  La  La457     1.0  0.40625  0.78125  0.03125  1.0000
  La  La458     1.0  0.40625  0.90625  0.15625  1.0000
  La  La459     1.0  0.40625  0.84375  0.09375  1.0000
  La  La460     1.0  0.40625  0.96875  0.21875  1.0000
  La  La461     1.0  0.46875  0.84375  0.03125  1.0000
  La  La462     1.0  0.46875  0.96875  0.15625  1.0000
  La  La463     1.0  0.46875  0.90625  0.21875  1.0000
  La  La464     1.0  0.46875  0.78125  0.09375  1.0000
  Zr  Zr449     1.0  0.34375  0.84375  0.03125  1.0000
  Zr  Zr450     1.0  0.34375  0.96875  0.15625  1.0000
  Zr  Zr451     1.0  0.34375  0.90625  0.21875  1.0000
  Zr  Zr452     1.0  0.34375  0.78125  0.09375  1.0000
  Zr  Zr453     1.0  0.28125  0.78125  0.03125  1.0000
  Zr  Zr454     1.0  0.28125  0.90625  0.15625  1.0000
  Zr  Zr455     1.0  0.28125  0.84375  0.09375  1.0000
  Zr  Zr456     1.0  0.28125  0.96875  0.21875  1.0000
  Zr  Zr457     1.0  0.40625  0.78125  0.15625  1.0000
  Zr  Zr458     1.0  0.40625  0.90625  0.03125  1.0000
  Zr  Zr459     1.0  0.40625  0.84375  0.21875  1.0000
  Zr  Zr460     1.0  0.40625  0.96875  0.09375  1.0000
  Zr  Zr461     1.0  0.46875  0.84375  0.15625  1.0000
  Zr  Zr462     1.0  0.46875  0.96875  0.03125  1.0000
  Zr  Zr463     1.0  0.46875  0.90625  0.09375  1.0000
  Zr  Zr464     1.0  0.46875  0.78125  0.21875  1.0000
  O   O1569     1.0  0.37500  0.87500  0.04910  1.0000
  O   O1570     1.0  0.37500  0.75000  0.17410  1.0000
  O   O1571     1.0  0.37500  0.82590  0.00000  1.0000
  O   O1572     1.0  0.37500  0.95090  0.12500  1.0000
  O   O1573     1.0  0.37500  0.87500  0.20090  1.0000
  O   O1574     1.0  0.37500  0.75000  0.07590  1.0000
  O   O1575     1.0  0.37500  0.92410  0.00000  1.0000
  O   O1576     1.0  0.37500  0.79910  0.12500  1.0000
  O   O1577     1.0  0.31250  0.81250  0.01340  1.0000
  O   O1578     1.0  0.31250  0.93750  0.13840  1.0000
  O   O1579     1.0  0.31250  0.76340  0.06250  1.0000
  O   O1580     1.0  0.31250  0.88840  0.18750  1.0000
  O   O1581     1.0  0.31250  0.81250  0.11160  1.0000
  O   O1582     1.0  0.31250  0.93750  0.23660  1.0000
  O   O1583     1.0  0.31250  0.86160  0.06250  1.0000
  O   O1584     1.0  0.31250  0.98660  0.18750  1.0000
  O   O1585     1.0  0.43750  0.81250  0.13840  1.0000
  O   O1586     1.0  0.43750  0.93750  0.01340  1.0000
  O   O1587     1.0  0.43750  0.76340  0.18750  1.0000
  O   O1588     1.0  0.43750  0.88840  0.06250  1.0000
  O   O1589     1.0  0.43750  0.81250  0.23660  1.0000
  O   O1590     1.0  0.43750  0.93750  0.11160  1.0000
  O   O1591     1.0  0.43750  0.86160  0.18750  1.0000
  O   O1592     1.0  0.43750  0.98660  0.06250  1.0000
  O   O1593     1.0  0.25000  0.87500  0.17410  1.0000
  O   O1594     1.0  0.25000  0.75000  0.04910  1.0000
  O   O1595     1.0  0.25000  0.82590  0.12500  1.0000
  O   O1596     1.0  0.25000  0.95090  0.00000  1.0000
  O   O1597     1.0  0.25000  0.87500  0.07590  1.0000
  O   O1598     1.0  0.25000  0.75000  0.20090  1.0000
  O   O1599     1.0  0.25000  0.92410  0.12500  1.0000
  O   O1600     1.0  0.25000  0.79910  0.00000  1.0000
  O   O1601     1.0  0.32590  0.87500  0.00000  1.0000
  O   O1602     1.0  0.32590  0.75000  0.12500  1.0000
  O   O1603     1.0  0.26340  0.81250  0.06250  1.0000
  O   O1604     1.0  0.26340  0.93750  0.18750  1.0000
  O   O1605     1.0  0.38840  0.81250  0.18750  1.0000
  O   O1606     1.0  0.38840  0.93750  0.06250  1.0000
  O   O1607     1.0  0.45090  0.87500  0.12500  1.0000
  O   O1608     1.0  0.45090  0.75000  0.00000  1.0000
  O   O1609     1.0  0.42410  0.87500  0.00000  1.0000
  O   O1610     1.0  0.42410  0.75000  0.12500  1.0000
  O   O1611     1.0  0.36160  0.81250  0.06250  1.0000
  O   O1612     1.0  0.36160  0.93750  0.18750  1.0000
  O   O1613     1.0  0.48660  0.81250  0.18750  1.0000
  O   O1614     1.0  0.48660  0.93750  0.06250  1.0000
  O   O1615     1.0  0.29910  0.87500  0.12500  1.0000
  O   O1616     1.0  0.29910  0.75000  0.00000  1.0000
  O   O1617     1.0  0.37500  0.87500  0.12500  1.0000
  O   O1618     1.0  0.37500  0.75000  0.00000  1.0000
  O   O1619     1.0  0.31250  0.81250  0.18750  1.0000
  O   O1620     1.0  0.31250  0.93750  0.06250  1.0000
  O   O1621     1.0  0.43750  0.81250  0.06250  1.0000
  O   O1622     1.0  0.43750  0.93750  0.18750  1.0000
  O   O1623     1.0  0.25000  0.87500  0.00000  1.0000
  O   O1624     1.0  0.25000  0.75000  0.12500  1.0000
  La  La465     1.0  0.34375  0.84375  0.40625  1.0000
  La  La466     1.0  0.34375  0.96875  0.28125  1.0000
  La  La467     1.0  0.34375  0.90625  0.34375  1.0000
  La  La468     1.0  0.34375  0.78125  0.46875  1.0000
  La  La469     1.0  0.28125  0.78125  0.40625  1.0000
  La  La470     1.0  0.28125  0.90625  0.28125  1.0000
  La  La471     1.0  0.28125  0.84375  0.46875  1.0000
  La  La472     1.0  0.28125  0.96875  0.34375  1.0000
  La  La473     1.0  0.40625  0.78125  0.28125  1.0000
  La  La474     1.0  0.40625  0.90625  0.40625  1.0000
  La  La475     1.0  0.40625  0.84375  0.34375  1.0000
  La  La476     1.0  0.40625  0.96875  0.46875  1.0000
  La  La477     1.0  0.46875  0.84375  0.28125  1.0000
  La  La478     1.0  0.46875  0.96875  0.40625  1.0000
  La  La479     1.0  0.46875  0.90625  0.46875  1.0000
  La  La480     1.0  0.46875  0.78125  0.34375  1.0000
  Zr  Zr465     1.0  0.34375  0.84375  0.28125  1.0000
  Zr  Zr466     1.0  0.34375  0.96875  0.40625  1.0000
  Zr  Zr467     1.0  0.34375  0.90625  0.46875  1.0000
  Zr  Zr468     1.0  0.34375  0.78125  0.34375  1.0000
  Zr  Zr469     1.0  0.28125  0.78125  0.28125  1.0000
  Zr  Zr470     1.0  0.28125  0.90625  0.40625  1.0000
  Zr  Zr471     1.0  0.28125  0.84375  0.34375  1.0000
  Zr  Zr472     1.0  0.28125  0.96875  0.46875  1.0000
  Zr  Zr473     1.0  0.40625  0.78125  0.40625  1.0000
  Zr  Zr474     1.0  0.40625  0.90625  0.28125  1.0000
  Zr  Zr475     1.0  0.40625  0.84375  0.46875  1.0000
  Zr  Zr476     1.0  0.40625  0.96875  0.34375  1.0000
  Zr  Zr477     1.0  0.46875  0.84375  0.40625  1.0000
  Zr  Zr478     1.0  0.46875  0.96875  0.28125  1.0000
  Zr  Zr479     1.0  0.46875  0.90625  0.34375  1.0000
  Zr  Zr480     1.0  0.46875  0.78125  0.46875  1.0000
  O   O1625     1.0  0.37500  0.87500  0.29910  1.0000
  O   O1626     1.0  0.37500  0.75000  0.42410  1.0000
  O   O1627     1.0  0.37500  0.82590  0.25000  1.0000
  O   O1628     1.0  0.37500  0.95090  0.37500  1.0000
  O   O1629     1.0  0.37500  0.87500  0.45090  1.0000
  O   O1630     1.0  0.37500  0.75000  0.32590  1.0000
  O   O1631     1.0  0.37500  0.92410  0.25000  1.0000
  O   O1632     1.0  0.37500  0.79910  0.37500  1.0000
  O   O1633     1.0  0.31250  0.81250  0.26340  1.0000
  O   O1634     1.0  0.31250  0.93750  0.38840  1.0000
  O   O1635     1.0  0.31250  0.76340  0.31250  1.0000
  O   O1636     1.0  0.31250  0.88840  0.43750  1.0000
  O   O1637     1.0  0.31250  0.81250  0.36160  1.0000
  O   O1638     1.0  0.31250  0.93750  0.48660  1.0000
  O   O1639     1.0  0.31250  0.86160  0.31250  1.0000
  O   O1640     1.0  0.31250  0.98660  0.43750  1.0000
  O   O1641     1.0  0.43750  0.81250  0.38840  1.0000
  O   O1642     1.0  0.43750  0.93750  0.26340  1.0000
  O   O1643     1.0  0.43750  0.76340  0.43750  1.0000
  O   O1644     1.0  0.43750  0.88840  0.31250  1.0000
  O   O1645     1.0  0.43750  0.81250  0.48660  1.0000
  O   O1646     1.0  0.43750  0.93750  0.36160  1.0000
  O   O1647     1.0  0.43750  0.86160  0.43750  1.0000
  O   O1648     1.0  0.43750  0.98660  0.31250  1.0000
  O   O1649     1.0  0.25000  0.87500  0.42410  1.0000
  O   O1650     1.0  0.25000  0.75000  0.29910  1.0000
  O   O1651     1.0  0.25000  0.82590  0.37500  1.0000
  O   O1652     1.0  0.25000  0.95090  0.25000  1.0000
  O   O1653     1.0  0.25000  0.87500  0.32590  1.0000
  O   O1654     1.0  0.25000  0.75000  0.45090  1.0000
  O   O1655     1.0  0.25000  0.92410  0.37500  1.0000
  O   O1656     1.0  0.25000  0.79910  0.25000  1.0000
  O   O1657     1.0  0.32590  0.87500  0.25000  1.0000
  O   O1658     1.0  0.32590  0.75000  0.37500  1.0000
  O   O1659     1.0  0.26340  0.81250  0.31250  1.0000
  O   O1660     1.0  0.26340  0.93750  0.43750  1.0000
  O   O1661     1.0  0.38840  0.81250  0.43750  1.0000
  O   O1662     1.0  0.38840  0.93750  0.31250  1.0000
  O   O1663     1.0  0.45090  0.87500  0.37500  1.0000
  O   O1664     1.0  0.45090  0.75000  0.25000  1.0000
  O   O1665     1.0  0.42410  0.87500  0.25000  1.0000
  O   O1666     1.0  0.42410  0.75000  0.37500  1.0000
  O   O1667     1.0  0.36160  0.81250  0.31250  1.0000
  O   O1668     1.0  0.36160  0.93750  0.43750  1.0000
  O   O1669     1.0  0.48660  0.81250  0.43750  1.0000
  O   O1670     1.0  0.48660  0.93750  0.31250  1.0000
  O   O1671     1.0  0.29910  0.87500  0.37500  1.0000
  O   O1672     1.0  0.29910  0.75000  0.25000  1.0000
  O   O1673     1.0  0.37500  0.87500  0.37500  1.0000
  O   O1674     1.0  0.37500  0.75000  0.25000  1.0000
  O   O1675     1.0  0.31250  0.81250  0.43750  1.0000
  O   O1676     1.0  0.31250  0.93750  0.31250  1.0000
  O   O1677     1.0  0.43750  0.81250  0.31250  1.0000
  O   O1678     1.0  0.43750  0.93750  0.43750  1.0000
  O   O1679     1.0  0.25000  0.87500  0.25000  1.0000
  O   O1680     1.0  0.25000  0.75000  0.37500  1.0000
  La  La481     1.0  0.34375  0.84375  0.65625  1.0000
  La  La482     1.0  0.34375  0.96875  0.53125  1.0000
  La  La483     1.0  0.34375  0.90625  0.59375  1.0000
  La  La484     1.0  0.34375  0.78125  0.71875  1.0000
  La  La485     1.0  0.28125  0.78125  0.65625  1.0000
  La  La486     1.0  0.28125  0.90625  0.53125  1.0000
  La  La487     1.0  0.28125  0.84375  0.71875  1.0000
  La  La488     1.0  0.28125  0.96875  0.59375  1.0000
  La  La489     1.0  0.40625  0.78125  0.53125  1.0000
  La  La490     1.0  0.40625  0.90625  0.65625  1.0000
  La  La491     1.0  0.40625  0.84375  0.59375  1.0000
  La  La492     1.0  0.40625  0.96875  0.71875  1.0000
  La  La493     1.0  0.46875  0.84375  0.53125  1.0000
  La  La494     1.0  0.46875  0.96875  0.65625  1.0000
  La  La495     1.0  0.46875  0.90625  0.71875  1.0000
  La  La496     1.0  0.46875  0.78125  0.59375  1.0000
  Zr  Zr481     1.0  0.34375  0.84375  0.53125  1.0000
  Zr  Zr482     1.0  0.34375  0.96875  0.65625  1.0000
  Zr  Zr483     1.0  0.34375  0.90625  0.71875  1.0000
  Zr  Zr484     1.0  0.34375  0.78125  0.59375  1.0000
  Zr  Zr485     1.0  0.28125  0.78125  0.53125  1.0000
  Zr  Zr486     1.0  0.28125  0.90625  0.65625  1.0000
  Zr  Zr487     1.0  0.28125  0.84375  0.59375  1.0000
  Zr  Zr488     1.0  0.28125  0.96875  0.71875  1.0000
  Zr  Zr489     1.0  0.40625  0.78125  0.65625  1.0000
  Zr  Zr490     1.0  0.40625  0.90625  0.53125  1.0000
  Zr  Zr491     1.0  0.40625  0.84375  0.71875  1.0000
  Zr  Zr492     1.0  0.40625  0.96875  0.59375  1.0000
  Zr  Zr493     1.0  0.46875  0.84375  0.65625  1.0000
  Zr  Zr494     1.0  0.46875  0.96875  0.53125  1.0000
  Zr  Zr495     1.0  0.46875  0.90625  0.59375  1.0000
  Zr  Zr496     1.0  0.46875  0.78125  0.71875  1.0000
  O   O1681     1.0  0.37500  0.87500  0.54910  1.0000
  O   O1682     1.0  0.37500  0.75000  0.67410  1.0000
  O   O1683     1.0  0.37500  0.82590  0.50000  1.0000
  O   O1684     1.0  0.37500  0.95090  0.62500  1.0000
  O   O1685     1.0  0.37500  0.87500  0.70090  1.0000
  O   O1686     1.0  0.37500  0.75000  0.57590  1.0000
  O   O1687     1.0  0.37500  0.92410  0.50000  1.0000
  O   O1688     1.0  0.37500  0.79910  0.62500  1.0000
  O   O1689     1.0  0.31250  0.81250  0.51340  1.0000
  O   O1690     1.0  0.31250  0.93750  0.63840  1.0000
  O   O1691     1.0  0.31250  0.76340  0.56250  1.0000
  O   O1692     1.0  0.31250  0.88840  0.68750  1.0000
  O   O1693     1.0  0.31250  0.81250  0.61160  1.0000
  O   O1694     1.0  0.31250  0.93750  0.73660  1.0000
  O   O1695     1.0  0.31250  0.86160  0.56250  1.0000
  O   O1696     1.0  0.31250  0.98660  0.68750  1.0000
  O   O1697     1.0  0.43750  0.81250  0.63840  1.0000
  O   O1698     1.0  0.43750  0.93750  0.51340  1.0000
  O   O1699     1.0  0.43750  0.76340  0.68750  1.0000
  O   O1700     1.0  0.43750  0.88840  0.56250  1.0000
  O   O1701     1.0  0.43750  0.81250  0.73660  1.0000
  O   O1702     1.0  0.43750  0.93750  0.61160  1.0000
  O   O1703     1.0  0.43750  0.86160  0.68750  1.0000
  O   O1704     1.0  0.43750  0.98660  0.56250  1.0000
  O   O1705     1.0  0.25000  0.87500  0.67410  1.0000
  O   O1706     1.0  0.25000  0.75000  0.54910  1.0000
  O   O1707     1.0  0.25000  0.82590  0.62500  1.0000
  O   O1708     1.0  0.25000  0.95090  0.50000  1.0000
  O   O1709     1.0  0.25000  0.87500  0.57590  1.0000
  O   O1710     1.0  0.25000  0.75000  0.70090  1.0000
  O   O1711     1.0  0.25000  0.92410  0.62500  1.0000
  O   O1712     1.0  0.25000  0.79910  0.50000  1.0000
  O   O1713     1.0  0.32590  0.87500  0.50000  1.0000
  O   O1714     1.0  0.32590  0.75000  0.62500  1.0000
  O   O1715     1.0  0.26340  0.81250  0.56250  1.0000
  O   O1716     1.0  0.26340  0.93750  0.68750  1.0000
  O   O1717     1.0  0.38840  0.81250  0.68750  1.0000
  O   O1718     1.0  0.38840  0.93750  0.56250  1.0000
  O   O1719     1.0  0.45090  0.87500  0.62500  1.0000
  O   O1720     1.0  0.45090  0.75000  0.50000  1.0000
  O   O1721     1.0  0.42410  0.87500  0.50000  1.0000
  O   O1722     1.0  0.42410  0.75000  0.62500  1.0000
  O   O1723     1.0  0.36160  0.81250  0.56250  1.0000
  O   O1724     1.0  0.36160  0.93750  0.68750  1.0000
  O   O1725     1.0  0.48660  0.81250  0.68750  1.0000
  O   O1726     1.0  0.48660  0.93750  0.56250  1.0000
  O   O1727     1.0  0.29910  0.87500  0.62500  1.0000
  O   O1728     1.0  0.29910  0.75000  0.50000  1.0000
  O   O1729     1.0  0.37500  0.87500  0.62500  1.0000
  O   O1730     1.0  0.37500  0.75000  0.50000  1.0000
  O   O1731     1.0  0.31250  0.81250  0.68750  1.0000
  O   O1732     1.0  0.31250  0.93750  0.56250  1.0000
  O   O1733     1.0  0.43750  0.81250  0.56250  1.0000
  O   O1734     1.0  0.43750  0.93750  0.68750  1.0000
  O   O1735     1.0  0.25000  0.87500  0.50000  1.0000
  O   O1736     1.0  0.25000  0.75000  0.62500  1.0000
  La  La497     1.0  0.34375  0.84375  0.90625  1.0000
  La  La498     1.0  0.34375  0.96875  0.78125  1.0000
  La  La499     1.0  0.34375  0.90625  0.84375  1.0000
  La  La500     1.0  0.34375  0.78125  0.96875  1.0000
  La  La501     1.0  0.28125  0.78125  0.90625  1.0000
  La  La502     1.0  0.28125  0.90625  0.78125  1.0000
  La  La503     1.0  0.28125  0.84375  0.96875  1.0000
  La  La504     1.0  0.28125  0.96875  0.84375  1.0000
  La  La505     1.0  0.40625  0.78125  0.78125  1.0000
  La  La506     1.0  0.40625  0.90625  0.90625  1.0000
  La  La507     1.0  0.40625  0.84375  0.84375  1.0000
  La  La508     1.0  0.40625  0.96875  0.96875  1.0000
  La  La509     1.0  0.46875  0.84375  0.78125  1.0000
  La  La510     1.0  0.46875  0.96875  0.90625  1.0000
  La  La511     1.0  0.46875  0.90625  0.96875  1.0000
  La  La512     1.0  0.46875  0.78125  0.84375  1.0000
  Zr  Zr497     1.0  0.34375  0.84375  0.78125  1.0000
  Zr  Zr498     1.0  0.34375  0.96875  0.90625  1.0000
  Zr  Zr499     1.0  0.34375  0.90625  0.96875  1.0000
  Zr  Zr500     1.0  0.34375  0.78125  0.84375  1.0000
  Zr  Zr501     1.0  0.28125  0.78125  0.78125  1.0000
  Zr  Zr502     1.0  0.28125  0.90625  0.90625  1.0000
  Zr  Zr503     1.0  0.28125  0.84375  0.84375  1.0000
  Zr  Zr504     1.0  0.28125  0.96875  0.96875  1.0000
  Zr  Zr505     1.0  0.40625  0.78125  0.90625  1.0000
  Zr  Zr506     1.0  0.40625  0.90625  0.78125  1.0000
  Zr  Zr507     1.0  0.40625  0.84375  0.96875  1.0000
  Zr  Zr508     1.0  0.40625  0.96875  0.84375  1.0000
  Zr  Zr509     1.0  0.46875  0.84375  0.90625  1.0000
  Zr  Zr510     1.0  0.46875  0.96875  0.78125  1.0000
  Zr  Zr511     1.0  0.46875  0.90625  0.84375  1.0000
  Zr  Zr512     1.0  0.46875  0.78125  0.96875  1.0000
  O   O1737     1.0  0.37500  0.87500  0.79910  1.0000
  O   O1738     1.0  0.37500  0.75000  0.92410  1.0000
  O   O1739     1.0  0.37500  0.82590  0.75000  1.0000
  O   O1740     1.0  0.37500  0.95090  0.87500  1.0000
  O   O1741     1.0  0.37500  0.87500  0.95090  1.0000
  O   O1742     1.0  0.37500  0.75000  0.82590  1.0000
  O   O1743     1.0  0.37500  0.92410  0.75000  1.0000
  O   O1744     1.0  0.37500  0.79910  0.87500  1.0000
  O   O1745     1.0  0.31250  0.81250  0.76340  1.0000
  O   O1746     1.0  0.31250  0.93750  0.88840  1.0000
  O   O1747     1.0  0.31250  0.76340  0.81250  1.0000
  O   O1748     1.0  0.31250  0.88840  0.93750  1.0000
  O   O1749     1.0  0.31250  0.81250  0.86160  1.0000
  O   O1750     1.0  0.31250  0.93750  0.98660  1.0000
  O   O1751     1.0  0.31250  0.86160  0.81250  1.0000
  O   O1752     1.0  0.31250  0.98660  0.93750  1.0000
  O   O1753     1.0  0.43750  0.81250  0.88840  1.0000
  O   O1754     1.0  0.43750  0.93750  0.76340  1.0000
  O   O1755     1.0  0.43750  0.76340  0.93750  1.0000
  O   O1756     1.0  0.43750  0.88840  0.81250  1.0000
  O   O1757     1.0  0.43750  0.81250  0.98660  1.0000
  O   O1758     1.0  0.43750  0.93750  0.86160  1.0000
  O   O1759     1.0  0.43750  0.86160  0.93750  1.0000
  O   O1760     1.0  0.43750  0.98660  0.81250  1.0000
  O   O1761     1.0  0.25000  0.87500  0.92410  1.0000
  O   O1762     1.0  0.25000  0.75000  0.79910  1.0000
  O   O1763     1.0  0.25000  0.82590  0.87500  1.0000
  O   O1764     1.0  0.25000  0.95090  0.75000  1.0000
  O   O1765     1.0  0.25000  0.87500  0.82590  1.0000
  O   O1766     1.0  0.25000  0.75000  0.95090  1.0000
  O   O1767     1.0  0.25000  0.92410  0.87500  1.0000
  O   O1768     1.0  0.25000  0.79910  0.75000  1.0000
  O   O1769     1.0  0.32590  0.87500  0.75000  1.0000
  O   O1770     1.0  0.32590  0.75000  0.87500  1.0000
  O   O1771     1.0  0.26340  0.81250  0.81250  1.0000
  O   O1772     1.0  0.26340  0.93750  0.93750  1.0000
  O   O1773     1.0  0.38840  0.81250  0.93750  1.0000
  O   O1774     1.0  0.38840  0.93750  0.81250  1.0000
  O   O1775     1.0  0.45090  0.87500  0.87500  1.0000
  O   O1776     1.0  0.45090  0.75000  0.75000  1.0000
  O   O1777     1.0  0.42410  0.87500  0.75000  1.0000
  O   O1778     1.0  0.42410  0.75000  0.87500  1.0000
  O   O1779     1.0  0.36160  0.81250  0.81250  1.0000
  O   O1780     1.0  0.36160  0.93750  0.93750  1.0000
  O   O1781     1.0  0.48660  0.81250  0.93750  1.0000
  O   O1782     1.0  0.48660  0.93750  0.81250  1.0000
  O   O1783     1.0  0.29910  0.87500  0.87500  1.0000
  O   O1784     1.0  0.29910  0.75000  0.75000  1.0000
  O   O1785     1.0  0.37500  0.87500  0.87500  1.0000
  O   O1786     1.0  0.37500  0.75000  0.75000  1.0000
  O   O1787     1.0  0.31250  0.81250  0.93750  1.0000
  O   O1788     1.0  0.31250  0.93750  0.81250  1.0000
  O   O1789     1.0  0.43750  0.81250  0.81250  1.0000
  O   O1790     1.0  0.43750  0.93750  0.93750  1.0000
  O   O1791     1.0  0.25000  0.87500  0.75000  1.0000
  O   O1792     1.0  0.25000  0.75000  0.87500  1.0000
  La  La513     1.0  0.59375  0.09375  0.15625  1.0000
  La  La514     1.0  0.59375  0.21875  0.03125  1.0000
  La  La515     1.0  0.59375  0.15625  0.09375  1.0000
  La  La516     1.0  0.59375  0.03125  0.21875  1.0000
  La  La517     1.0  0.53125  0.03125  0.15625  1.0000
  La  La518     1.0  0.53125  0.15625  0.03125  1.0000
  La  La519     1.0  0.53125  0.09375  0.21875  1.0000
  La  La520     1.0  0.53125  0.21875  0.09375  1.0000
  La  La521     1.0  0.65625  0.03125  0.03125  1.0000
  La  La522     1.0  0.65625  0.15625  0.15625  1.0000
  La  La523     1.0  0.65625  0.09375  0.09375  1.0000
  La  La524     1.0  0.65625  0.21875  0.21875  1.0000
  La  La525     1.0  0.71875  0.09375  0.03125  1.0000
  La  La526     1.0  0.71875  0.21875  0.15625  1.0000
  La  La527     1.0  0.71875  0.15625  0.21875  1.0000
  La  La528     1.0  0.71875  0.03125  0.09375  1.0000
  Zr  Zr513     1.0  0.59375  0.09375  0.03125  1.0000
  Zr  Zr514     1.0  0.59375  0.21875  0.15625  1.0000
  Zr  Zr515     1.0  0.59375  0.15625  0.21875  1.0000
  Zr  Zr516     1.0  0.59375  0.03125  0.09375  1.0000
  Zr  Zr517     1.0  0.53125  0.03125  0.03125  1.0000
  Zr  Zr518     1.0  0.53125  0.15625  0.15625  1.0000
  Zr  Zr519     1.0  0.53125  0.09375  0.09375  1.0000
  Zr  Zr520     1.0  0.53125  0.21875  0.21875  1.0000
  Zr  Zr521     1.0  0.65625  0.03125  0.15625  1.0000
  Zr  Zr522     1.0  0.65625  0.15625  0.03125  1.0000
  Zr  Zr523     1.0  0.65625  0.09375  0.21875  1.0000
  Zr  Zr524     1.0  0.65625  0.21875  0.09375  1.0000
  Zr  Zr525     1.0  0.71875  0.09375  0.15625  1.0000
  Zr  Zr526     1.0  0.71875  0.21875  0.03125  1.0000
  Zr  Zr527     1.0  0.71875  0.15625  0.09375  1.0000
  Zr  Zr528     1.0  0.71875  0.03125  0.21875  1.0000
  O   O1793     1.0  0.62500  0.12500  0.04910  1.0000
  O   O1794     1.0  0.62500  0.00000  0.17410  1.0000
  O   O1795     1.0  0.62500  0.07590  0.00000  1.0000
  O   O1796     1.0  0.62500  0.20090  0.12500  1.0000
  O   O1797     1.0  0.62500  0.12500  0.20090  1.0000
  O   O1798     1.0  0.62500  0.00000  0.07590  1.0000
  O   O1799     1.0  0.62500  0.17410  0.00000  1.0000
  O   O1800     1.0  0.62500  0.04910  0.12500  1.0000
  O   O1801     1.0  0.56250  0.06250  0.01340  1.0000
  O   O1802     1.0  0.56250  0.18750  0.13840  1.0000
  O   O1803     1.0  0.56250  0.01340  0.06250  1.0000
  O   O1804     1.0  0.56250  0.13840  0.18750  1.0000
  O   O1805     1.0  0.56250  0.06250  0.11160  1.0000
  O   O1806     1.0  0.56250  0.18750  0.23660  1.0000
  O   O1807     1.0  0.56250  0.11160  0.06250  1.0000
  O   O1808     1.0  0.56250  0.23660  0.18750  1.0000
  O   O1809     1.0  0.68750  0.06250  0.13840  1.0000
  O   O1810     1.0  0.68750  0.18750  0.01340  1.0000
  O   O1811     1.0  0.68750  0.01340  0.18750  1.0000
  O   O1812     1.0  0.68750  0.13840  0.06250  1.0000
  O   O1813     1.0  0.68750  0.06250  0.23660  1.0000
  O   O1814     1.0  0.68750  0.18750  0.11160  1.0000
  O   O1815     1.0  0.68750  0.11160  0.18750  1.0000
  O   O1816     1.0  0.68750  0.23660  0.06250  1.0000
  O   O1817     1.0  0.50000  0.12500  0.17410  1.0000
  O   O1818     1.0  0.50000  0.00000  0.04910  1.0000
  O   O1819     1.0  0.50000  0.07590  0.12500  1.0000
  O   O1820     1.0  0.50000  0.20090  0.00000  1.0000
  O   O1821     1.0  0.50000  0.12500  0.07590  1.0000
  O   O1822     1.0  0.50000  0.00000  0.20090  1.0000
  O   O1823     1.0  0.50000  0.17410  0.12500  1.0000
  O   O1824     1.0  0.50000  0.04910  0.00000  1.0000
  O   O1825     1.0  0.57590  0.12500  0.00000  1.0000
  O   O1826     1.0  0.57590  0.00000  0.12500  1.0000
  O   O1827     1.0  0.51340  0.06250  0.06250  1.0000
  O   O1828     1.0  0.51340  0.18750  0.18750  1.0000
  O   O1829     1.0  0.63840  0.06250  0.18750  1.0000
  O   O1830     1.0  0.63840  0.18750  0.06250  1.0000
  O   O1831     1.0  0.70090  0.12500  0.12500  1.0000
  O   O1832     1.0  0.70090  0.00000  0.00000  1.0000
  O   O1833     1.0  0.67410  0.12500  0.00000  1.0000
  O   O1834     1.0  0.67410  0.00000  0.12500  1.0000
  O   O1835     1.0  0.61160  0.06250  0.06250  1.0000
  O   O1836     1.0  0.61160  0.18750  0.18750  1.0000
  O   O1837     1.0  0.73660  0.06250  0.18750  1.0000
  O   O1838     1.0  0.73660  0.18750  0.06250  1.0000
  O   O1839     1.0  0.54910  0.12500  0.12500  1.0000
  O   O1840     1.0  0.54910  0.00000  0.00000  1.0000
  O   O1841     1.0  0.62500  0.12500  0.12500  1.0000
  O   O1842     1.0  0.62500  0.00000  0.00000  1.0000
  O   O1843     1.0  0.56250  0.06250  0.18750  1.0000
  O   O1844     1.0  0.56250  0.18750  0.06250  1.0000
  O   O1845     1.0  0.68750  0.06250  0.06250  1.0000
  O   O1846     1.0  0.68750  0.18750  0.18750  1.0000
  O   O1847     1.0  0.50000  0.12500  0.00000  1.0000
  O   O1848     1.0  0.50000  0.00000  0.12500  1.0000
  La  La529     1.0  0.59375  0.09375  0.40625  1.0000
  La  La530     1.0  0.59375  0.21875  0.28125  1.0000
  La  La531     1.0  0.59375  0.15625  0.34375  1.0000
  La  La532     1.0  0.59375  0.03125  0.46875  1.0000
  La  La533     1.0  0.53125  0.03125  0.40625  1.0000
  La  La534     1.0  0.53125  0.15625  0.28125  1.0000
  La  La535     1.0  0.53125  0.09375  0.46875  1.0000
  La  La536     1.0  0.53125  0.21875  0.34375  1.0000
  La  La537     1.0  0.65625  0.03125  0.28125  1.0000
  La  La538     1.0  0.65625  0.15625  0.40625  1.0000
  La  La539     1.0  0.65625  0.09375  0.34375  1.0000
  La  La540     1.0  0.65625  0.21875  0.46875  1.0000
  La  La541     1.0  0.71875  0.09375  0.28125  1.0000
  La  La542     1.0  0.71875  0.21875  0.40625  1.0000
  La  La543     1.0  0.71875  0.15625  0.46875  1.0000
  La  La544     1.0  0.71875  0.03125  0.34375  1.0000
  Zr  Zr529     1.0  0.59375  0.09375  0.28125  1.0000
  Zr  Zr530     1.0  0.59375  0.21875  0.40625  1.0000
  Zr  Zr531     1.0  0.59375  0.15625  0.46875  1.0000
  Zr  Zr532     1.0  0.59375  0.03125  0.34375  1.0000
  Zr  Zr533     1.0  0.53125  0.03125  0.28125  1.0000
  Zr  Zr534     1.0  0.53125  0.15625  0.40625  1.0000
  Zr  Zr535     1.0  0.53125  0.09375  0.34375  1.0000
  Zr  Zr536     1.0  0.53125  0.21875  0.46875  1.0000
  Zr  Zr537     1.0  0.65625  0.03125  0.40625  1.0000
  Zr  Zr538     1.0  0.65625  0.15625  0.28125  1.0000
  Zr  Zr539     1.0  0.65625  0.09375  0.46875  1.0000
  Zr  Zr540     1.0  0.65625  0.21875  0.34375  1.0000
  Zr  Zr541     1.0  0.71875  0.09375  0.40625  1.0000
  Zr  Zr542     1.0  0.71875  0.21875  0.28125  1.0000
  Zr  Zr543     1.0  0.71875  0.15625  0.34375  1.0000
  Zr  Zr544     1.0  0.71875  0.03125  0.46875  1.0000
  O   O1849     1.0  0.62500  0.12500  0.29910  1.0000
  O   O1850     1.0  0.62500  0.00000  0.42410  1.0000
  O   O1851     1.0  0.62500  0.07590  0.25000  1.0000
  O   O1852     1.0  0.62500  0.20090  0.37500  1.0000
  O   O1853     1.0  0.62500  0.12500  0.45090  1.0000
  O   O1854     1.0  0.62500  0.00000  0.32590  1.0000
  O   O1855     1.0  0.62500  0.17410  0.25000  1.0000
  O   O1856     1.0  0.62500  0.04910  0.37500  1.0000
  O   O1857     1.0  0.56250  0.06250  0.26340  1.0000
  O   O1858     1.0  0.56250  0.18750  0.38840  1.0000
  O   O1859     1.0  0.56250  0.01340  0.31250  1.0000
  O   O1860     1.0  0.56250  0.13840  0.43750  1.0000
  O   O1861     1.0  0.56250  0.06250  0.36160  1.0000
  O   O1862     1.0  0.56250  0.18750  0.48660  1.0000
  O   O1863     1.0  0.56250  0.11160  0.31250  1.0000
  O   O1864     1.0  0.56250  0.23660  0.43750  1.0000
  O   O1865     1.0  0.68750  0.06250  0.38840  1.0000
  O   O1866     1.0  0.68750  0.18750  0.26340  1.0000
  O   O1867     1.0  0.68750  0.01340  0.43750  1.0000
  O   O1868     1.0  0.68750  0.13840  0.31250  1.0000
  O   O1869     1.0  0.68750  0.06250  0.48660  1.0000
  O   O1870     1.0  0.68750  0.18750  0.36160  1.0000
  O   O1871     1.0  0.68750  0.11160  0.43750  1.0000
  O   O1872     1.0  0.68750  0.23660  0.31250  1.0000
  O   O1873     1.0  0.50000  0.12500  0.42410  1.0000
  O   O1874     1.0  0.50000  0.00000  0.29910  1.0000
  O   O1875     1.0  0.50000  0.07590  0.37500  1.0000
  O   O1876     1.0  0.50000  0.20090  0.25000  1.0000
  O   O1877     1.0  0.50000  0.12500  0.32590  1.0000
  O   O1878     1.0  0.50000  0.00000  0.45090  1.0000
  O   O1879     1.0  0.50000  0.17410  0.37500  1.0000
  O   O1880     1.0  0.50000  0.04910  0.25000  1.0000
  O   O1881     1.0  0.57590  0.12500  0.25000  1.0000
  O   O1882     1.0  0.57590  0.00000  0.37500  1.0000
  O   O1883     1.0  0.51340  0.06250  0.31250  1.0000
  O   O1884     1.0  0.51340  0.18750  0.43750  1.0000
  O   O1885     1.0  0.63840  0.06250  0.43750  1.0000
  O   O1886     1.0  0.63840  0.18750  0.31250  1.0000
  O   O1887     1.0  0.70090  0.12500  0.37500  1.0000
  O   O1888     1.0  0.70090  0.00000  0.25000  1.0000
  O   O1889     1.0  0.67410  0.12500  0.25000  1.0000
  O   O1890     1.0  0.67410  0.00000  0.37500  1.0000
  O   O1891     1.0  0.61160  0.06250  0.31250  1.0000
  O   O1892     1.0  0.61160  0.18750  0.43750  1.0000
  O   O1893     1.0  0.73660  0.06250  0.43750  1.0000
  O   O1894     1.0  0.73660  0.18750  0.31250  1.0000
  O   O1895     1.0  0.54910  0.12500  0.37500  1.0000
  O   O1896     1.0  0.54910  0.00000  0.25000  1.0000
  O   O1897     1.0  0.62500  0.12500  0.37500  1.0000
  O   O1898     1.0  0.62500  0.00000  0.25000  1.0000
  O   O1899     1.0  0.56250  0.06250  0.43750  1.0000
  O   O1900     1.0  0.56250  0.18750  0.31250  1.0000
  O   O1901     1.0  0.68750  0.06250  0.31250  1.0000
  O   O1902     1.0  0.68750  0.18750  0.43750  1.0000
  O   O1903     1.0  0.50000  0.12500  0.25000  1.0000
  O   O1904     1.0  0.50000  0.00000  0.37500  1.0000
  La  La545     1.0  0.59375  0.09375  0.65625  1.0000
  La  La546     1.0  0.59375  0.21875  0.53125  1.0000
  La  La547     1.0  0.59375  0.15625  0.59375  1.0000
  La  La548     1.0  0.59375  0.03125  0.71875  1.0000
  La  La549     1.0  0.53125  0.03125  0.65625  1.0000
  La  La550     1.0  0.53125  0.15625  0.53125  1.0000
  La  La551     1.0  0.53125  0.09375  0.71875  1.0000
  La  La552     1.0  0.53125  0.21875  0.59375  1.0000
  La  La553     1.0  0.65625  0.03125  0.53125  1.0000
  La  La554     1.0  0.65625  0.15625  0.65625  1.0000
  La  La555     1.0  0.65625  0.09375  0.59375  1.0000
  La  La556     1.0  0.65625  0.21875  0.71875  1.0000
  La  La557     1.0  0.71875  0.09375  0.53125  1.0000
  La  La558     1.0  0.71875  0.21875  0.65625  1.0000
  La  La559     1.0  0.71875  0.15625  0.71875  1.0000
  La  La560     1.0  0.71875  0.03125  0.59375  1.0000
  Zr  Zr545     1.0  0.59375  0.09375  0.53125  1.0000
  Zr  Zr546     1.0  0.59375  0.21875  0.65625  1.0000
  Zr  Zr547     1.0  0.59375  0.15625  0.71875  1.0000
  Zr  Zr548     1.0  0.59375  0.03125  0.59375  1.0000
  Zr  Zr549     1.0  0.53125  0.03125  0.53125  1.0000
  Zr  Zr550     1.0  0.53125  0.15625  0.65625  1.0000
  Zr  Zr551     1.0  0.53125  0.09375  0.59375  1.0000
  Zr  Zr552     1.0  0.53125  0.21875  0.71875  1.0000
  Zr  Zr553     1.0  0.65625  0.03125  0.65625  1.0000
  Zr  Zr554     1.0  0.65625  0.15625  0.53125  1.0000
  Zr  Zr555     1.0  0.65625  0.09375  0.71875  1.0000
  Zr  Zr556     1.0  0.65625  0.21875  0.59375  1.0000
  Zr  Zr557     1.0  0.71875  0.09375  0.65625  1.0000
  Zr  Zr558     1.0  0.71875  0.21875  0.53125  1.0000
  Zr  Zr559     1.0  0.71875  0.15625  0.59375  1.0000
  Zr  Zr560     1.0  0.71875  0.03125  0.71875  1.0000
  O   O1905     1.0  0.62500  0.12500  0.54910  1.0000
  O   O1906     1.0  0.62500  0.00000  0.67410  1.0000
  O   O1907     1.0  0.62500  0.07590  0.50000  1.0000
  O   O1908     1.0  0.62500  0.20090  0.62500  1.0000
  O   O1909     1.0  0.62500  0.12500  0.70090  1.0000
  O   O1910     1.0  0.62500  0.00000  0.57590  1.0000
  O   O1911     1.0  0.62500  0.17410  0.50000  1.0000
  O   O1912     1.0  0.62500  0.04910  0.62500  1.0000
  O   O1913     1.0  0.56250  0.06250  0.51340  1.0000
  O   O1914     1.0  0.56250  0.18750  0.63840  1.0000
  O   O1915     1.0  0.56250  0.01340  0.56250  1.0000
  O   O1916     1.0  0.56250  0.13840  0.68750  1.0000
  O   O1917     1.0  0.56250  0.06250  0.61160  1.0000
  O   O1918     1.0  0.56250  0.18750  0.73660  1.0000
  O   O1919     1.0  0.56250  0.11160  0.56250  1.0000
  O   O1920     1.0  0.56250  0.23660  0.68750  1.0000
  O   O1921     1.0  0.68750  0.06250  0.63840  1.0000
  O   O1922     1.0  0.68750  0.18750  0.51340  1.0000
  O   O1923     1.0  0.68750  0.01340  0.68750  1.0000
  O   O1924     1.0  0.68750  0.13840  0.56250  1.0000
  O   O1925     1.0  0.68750  0.06250  0.73660  1.0000
  O   O1926     1.0  0.68750  0.18750  0.61160  1.0000
  O   O1927     1.0  0.68750  0.11160  0.68750  1.0000
  O   O1928     1.0  0.68750  0.23660  0.56250  1.0000
  O   O1929     1.0  0.50000  0.12500  0.67410  1.0000
  O   O1930     1.0  0.50000  0.00000  0.54910  1.0000
  O   O1931     1.0  0.50000  0.07590  0.62500  1.0000
  O   O1932     1.0  0.50000  0.20090  0.50000  1.0000
  O   O1933     1.0  0.50000  0.12500  0.57590  1.0000
  O   O1934     1.0  0.50000  0.00000  0.70090  1.0000
  O   O1935     1.0  0.50000  0.17410  0.62500  1.0000
  O   O1936     1.0  0.50000  0.04910  0.50000  1.0000
  O   O1937     1.0  0.57590  0.12500  0.50000  1.0000
  O   O1938     1.0  0.57590  0.00000  0.62500  1.0000
  O   O1939     1.0  0.51340  0.06250  0.56250  1.0000
  O   O1940     1.0  0.51340  0.18750  0.68750  1.0000
  O   O1941     1.0  0.63840  0.06250  0.68750  1.0000
  O   O1942     1.0  0.63840  0.18750  0.56250  1.0000
  O   O1943     1.0  0.70090  0.12500  0.62500  1.0000
  O   O1944     1.0  0.70090  0.00000  0.50000  1.0000
  O   O1945     1.0  0.67410  0.12500  0.50000  1.0000
  O   O1946     1.0  0.67410  0.00000  0.62500  1.0000
  O   O1947     1.0  0.61160  0.06250  0.56250  1.0000
  O   O1948     1.0  0.61160  0.18750  0.68750  1.0000
  O   O1949     1.0  0.73660  0.06250  0.68750  1.0000
  O   O1950     1.0  0.73660  0.18750  0.56250  1.0000
  O   O1951     1.0  0.54910  0.12500  0.62500  1.0000
  O   O1952     1.0  0.54910  0.00000  0.50000  1.0000
  O   O1953     1.0  0.62500  0.12500  0.62500  1.0000
  O   O1954     1.0  0.62500  0.00000  0.50000  1.0000
  O   O1955     1.0  0.56250  0.06250  0.68750  1.0000
  O   O1956     1.0  0.56250  0.18750  0.56250  1.0000
  O   O1957     1.0  0.68750  0.06250  0.56250  1.0000
  O   O1958     1.0  0.68750  0.18750  0.68750  1.0000
  O   O1959     1.0  0.50000  0.12500  0.50000  1.0000
  O   O1960     1.0  0.50000  0.00000  0.62500  1.0000
  La  La561     1.0  0.59375  0.09375  0.90625  1.0000
  La  La562     1.0  0.59375  0.21875  0.78125  1.0000
  La  La563     1.0  0.59375  0.15625  0.84375  1.0000
  La  La564     1.0  0.59375  0.03125  0.96875  1.0000
  La  La565     1.0  0.53125  0.03125  0.90625  1.0000
  La  La566     1.0  0.53125  0.15625  0.78125  1.0000
  La  La567     1.0  0.53125  0.09375  0.96875  1.0000
  La  La568     1.0  0.53125  0.21875  0.84375  1.0000
  La  La569     1.0  0.65625  0.03125  0.78125  1.0000
  La  La570     1.0  0.65625  0.15625  0.90625  1.0000
  La  La571     1.0  0.65625  0.09375  0.84375  1.0000
  La  La572     1.0  0.65625  0.21875  0.96875  1.0000
  La  La573     1.0  0.71875  0.09375  0.78125  1.0000
  La  La574     1.0  0.71875  0.21875  0.90625  1.0000
  La  La575     1.0  0.71875  0.15625  0.96875  1.0000
  La  La576     1.0  0.71875  0.03125  0.84375  1.0000
  Zr  Zr561     1.0  0.59375  0.09375  0.78125  1.0000
  Zr  Zr562     1.0  0.59375  0.21875  0.90625  1.0000
  Zr  Zr563     1.0  0.59375  0.15625  0.96875  1.0000
  Zr  Zr564     1.0  0.59375  0.03125  0.84375  1.0000
  Zr  Zr565     1.0  0.53125  0.03125  0.78125  1.0000
  Zr  Zr566     1.0  0.53125  0.15625  0.90625  1.0000
  Zr  Zr567     1.0  0.53125  0.09375  0.84375  1.0000
  Zr  Zr568     1.0  0.53125  0.21875  0.96875  1.0000
  Zr  Zr569     1.0  0.65625  0.03125  0.90625  1.0000
  Zr  Zr570     1.0  0.65625  0.15625  0.78125  1.0000
  Zr  Zr571     1.0  0.65625  0.09375  0.96875  1.0000
  Zr  Zr572     1.0  0.65625  0.21875  0.84375  1.0000
  Zr  Zr573     1.0  0.71875  0.09375  0.90625  1.0000
  Zr  Zr574     1.0  0.71875  0.21875  0.78125  1.0000
  Zr  Zr575     1.0  0.71875  0.15625  0.84375  1.0000
  Zr  Zr576     1.0  0.71875  0.03125  0.96875  1.0000
  O   O1961     1.0  0.62500  0.12500  0.79910  1.0000
  O   O1962     1.0  0.62500  0.00000  0.92410  1.0000
  O   O1963     1.0  0.62500  0.07590  0.75000  1.0000
  O   O1964     1.0  0.62500  0.20090  0.87500  1.0000
  O   O1965     1.0  0.62500  0.12500  0.95090  1.0000
  O   O1966     1.0  0.62500  0.00000  0.82590  1.0000
  O   O1967     1.0  0.62500  0.17410  0.75000  1.0000
  O   O1968     1.0  0.62500  0.04910  0.87500  1.0000
  O   O1969     1.0  0.56250  0.06250  0.76340  1.0000
  O   O1970     1.0  0.56250  0.18750  0.88840  1.0000
  O   O1971     1.0  0.56250  0.01340  0.81250  1.0000
  O   O1972     1.0  0.56250  0.13840  0.93750  1.0000
  O   O1973     1.0  0.56250  0.06250  0.86160  1.0000
  O   O1974     1.0  0.56250  0.18750  0.98660  1.0000
  O   O1975     1.0  0.56250  0.11160  0.81250  1.0000
  O   O1976     1.0  0.56250  0.23660  0.93750  1.0000
  O   O1977     1.0  0.68750  0.06250  0.88840  1.0000
  O   O1978     1.0  0.68750  0.18750  0.76340  1.0000
  O   O1979     1.0  0.68750  0.01340  0.93750  1.0000
  O   O1980     1.0  0.68750  0.13840  0.81250  1.0000
  O   O1981     1.0  0.68750  0.06250  0.98660  1.0000
  O   O1982     1.0  0.68750  0.18750  0.86160  1.0000
  O   O1983     1.0  0.68750  0.11160  0.93750  1.0000
  O   O1984     1.0  0.68750  0.23660  0.81250  1.0000
  O   O1985     1.0  0.50000  0.12500  0.92410  1.0000
  O   O1986     1.0  0.50000  0.00000  0.79910  1.0000
  O   O1987     1.0  0.50000  0.07590  0.87500  1.0000
  O   O1988     1.0  0.50000  0.20090  0.75000  1.0000
  O   O1989     1.0  0.50000  0.12500  0.82590  1.0000
  O   O1990     1.0  0.50000  0.00000  0.95090  1.0000
  O   O1991     1.0  0.50000  0.17410  0.87500  1.0000
  O   O1992     1.0  0.50000  0.04910  0.75000  1.0000
  O   O1993     1.0  0.57590  0.12500  0.75000  1.0000
  O   O1994     1.0  0.57590  0.00000  0.87500  1.0000
  O   O1995     1.0  0.51340  0.06250  0.81250  1.0000
  O   O1996     1.0  0.51340  0.18750  0.93750  1.0000
  O   O1997     1.0  0.63840  0.06250  0.93750  1.0000
  O   O1998     1.0  0.63840  0.18750  0.81250  1.0000
  O   O1999     1.0  0.70090  0.12500  0.87500  1.0000
  O   O2000     1.0  0.70090  0.00000  0.75000  1.0000
  O   O2001     1.0  0.67410  0.12500  0.75000  1.0000
  O   O2002     1.0  0.67410  0.00000  0.87500  1.0000
  O   O2003     1.0  0.61160  0.06250  0.81250  1.0000
  O   O2004     1.0  0.61160  0.18750  0.93750  1.0000
  O   O2005     1.0  0.73660  0.06250  0.93750  1.0000
  O   O2006     1.0  0.73660  0.18750  0.81250  1.0000
  O   O2007     1.0  0.54910  0.12500  0.87500  1.0000
  O   O2008     1.0  0.54910  0.00000  0.75000  1.0000
  O   O2009     1.0  0.62500  0.12500  0.87500  1.0000
  O   O2010     1.0  0.62500  0.00000  0.75000  1.0000
  O   O2011     1.0  0.56250  0.06250  0.93750  1.0000
  O   O2012     1.0  0.56250  0.18750  0.81250  1.0000
  O   O2013     1.0  0.68750  0.06250  0.81250  1.0000
  O   O2014     1.0  0.68750  0.18750  0.93750  1.0000
  O   O2015     1.0  0.50000  0.12500  0.75000  1.0000
  O   O2016     1.0  0.50000  0.00000  0.87500  1.0000
  La  La577     1.0  0.59375  0.34375  0.15625  1.0000
  La  La578     1.0  0.59375  0.46875  0.03125  1.0000
  La  La579     1.0  0.59375  0.40625  0.09375  1.0000
  La  La580     1.0  0.59375  0.28125  0.21875  1.0000
  La  La581     1.0  0.53125  0.28125  0.15625  1.0000
  La  La582     1.0  0.53125  0.40625  0.03125  1.0000
  La  La583     1.0  0.53125  0.34375  0.21875  1.0000
  La  La584     1.0  0.53125  0.46875  0.09375  1.0000
  La  La585     1.0  0.65625  0.28125  0.03125  1.0000
  La  La586     1.0  0.65625  0.40625  0.15625  1.0000
  La  La587     1.0  0.65625  0.34375  0.09375  1.0000
  La  La588     1.0  0.65625  0.46875  0.21875  1.0000
  La  La589     1.0  0.71875  0.34375  0.03125  1.0000
  La  La590     1.0  0.71875  0.46875  0.15625  1.0000
  La  La591     1.0  0.71875  0.40625  0.21875  1.0000
  La  La592     1.0  0.71875  0.28125  0.09375  1.0000
  Zr  Zr577     1.0  0.59375  0.34375  0.03125  1.0000
  Zr  Zr578     1.0  0.59375  0.46875  0.15625  1.0000
  Zr  Zr579     1.0  0.59375  0.40625  0.21875  1.0000
  Zr  Zr580     1.0  0.59375  0.28125  0.09375  1.0000
  Zr  Zr581     1.0  0.53125  0.28125  0.03125  1.0000
  Zr  Zr582     1.0  0.53125  0.40625  0.15625  1.0000
  Zr  Zr583     1.0  0.53125  0.34375  0.09375  1.0000
  Zr  Zr584     1.0  0.53125  0.46875  0.21875  1.0000
  Zr  Zr585     1.0  0.65625  0.28125  0.15625  1.0000
  Zr  Zr586     1.0  0.65625  0.40625  0.03125  1.0000
  Zr  Zr587     1.0  0.65625  0.34375  0.21875  1.0000
  Zr  Zr588     1.0  0.65625  0.46875  0.09375  1.0000
  Zr  Zr589     1.0  0.71875  0.34375  0.15625  1.0000
  Zr  Zr590     1.0  0.71875  0.46875  0.03125  1.0000
  Zr  Zr591     1.0  0.71875  0.40625  0.09375  1.0000
  Zr  Zr592     1.0  0.71875  0.28125  0.21875  1.0000
  O   O2017     1.0  0.62500  0.37500  0.04910  1.0000
  O   O2018     1.0  0.62500  0.25000  0.17410  1.0000
  O   O2019     1.0  0.62500  0.32590  0.00000  1.0000
  O   O2020     1.0  0.62500  0.45090  0.12500  1.0000
  O   O2021     1.0  0.62500  0.37500  0.20090  1.0000
  O   O2022     1.0  0.62500  0.25000  0.07590  1.0000
  O   O2023     1.0  0.62500  0.42410  0.00000  1.0000
  O   O2024     1.0  0.62500  0.29910  0.12500  1.0000
  O   O2025     1.0  0.56250  0.31250  0.01340  1.0000
  O   O2026     1.0  0.56250  0.43750  0.13840  1.0000
  O   O2027     1.0  0.56250  0.26340  0.06250  1.0000
  O   O2028     1.0  0.56250  0.38840  0.18750  1.0000
  O   O2029     1.0  0.56250  0.31250  0.11160  1.0000
  O   O2030     1.0  0.56250  0.43750  0.23660  1.0000
  O   O2031     1.0  0.56250  0.36160  0.06250  1.0000
  O   O2032     1.0  0.56250  0.48660  0.18750  1.0000
  O   O2033     1.0  0.68750  0.31250  0.13840  1.0000
  O   O2034     1.0  0.68750  0.43750  0.01340  1.0000
  O   O2035     1.0  0.68750  0.26340  0.18750  1.0000
  O   O2036     1.0  0.68750  0.38840  0.06250  1.0000
  O   O2037     1.0  0.68750  0.31250  0.23660  1.0000
  O   O2038     1.0  0.68750  0.43750  0.11160  1.0000
  O   O2039     1.0  0.68750  0.36160  0.18750  1.0000
  O   O2040     1.0  0.68750  0.48660  0.06250  1.0000
  O   O2041     1.0  0.50000  0.37500  0.17410  1.0000
  O   O2042     1.0  0.50000  0.25000  0.04910  1.0000
  O   O2043     1.0  0.50000  0.32590  0.12500  1.0000
  O   O2044     1.0  0.50000  0.45090  0.00000  1.0000
  O   O2045     1.0  0.50000  0.37500  0.07590  1.0000
  O   O2046     1.0  0.50000  0.25000  0.20090  1.0000
  O   O2047     1.0  0.50000  0.42410  0.12500  1.0000
  O   O2048     1.0  0.50000  0.29910  0.00000  1.0000
  O   O2049     1.0  0.57590  0.37500  0.00000  1.0000
  O   O2050     1.0  0.57590  0.25000  0.12500  1.0000
  O   O2051     1.0  0.51340  0.31250  0.06250  1.0000
  O   O2052     1.0  0.51340  0.43750  0.18750  1.0000
  O   O2053     1.0  0.63840  0.31250  0.18750  1.0000
  O   O2054     1.0  0.63840  0.43750  0.06250  1.0000
  O   O2055     1.0  0.70090  0.37500  0.12500  1.0000
  O   O2056     1.0  0.70090  0.25000  0.00000  1.0000
  O   O2057     1.0  0.67410  0.37500  0.00000  1.0000
  O   O2058     1.0  0.67410  0.25000  0.12500  1.0000
  O   O2059     1.0  0.61160  0.31250  0.06250  1.0000
  O   O2060     1.0  0.61160  0.43750  0.18750  1.0000
  O   O2061     1.0  0.73660  0.31250  0.18750  1.0000
  O   O2062     1.0  0.73660  0.43750  0.06250  1.0000
  O   O2063     1.0  0.54910  0.37500  0.12500  1.0000
  O   O2064     1.0  0.54910  0.25000  0.00000  1.0000
  O   O2065     1.0  0.62500  0.37500  0.12500  1.0000
  O   O2066     1.0  0.62500  0.25000  0.00000  1.0000
  O   O2067     1.0  0.56250  0.31250  0.18750  1.0000
  O   O2068     1.0  0.56250  0.43750  0.06250  1.0000
  O   O2069     1.0  0.68750  0.31250  0.06250  1.0000
  O   O2070     1.0  0.68750  0.43750  0.18750  1.0000
  O   O2071     1.0  0.50000  0.37500  0.00000  1.0000
  O   O2072     1.0  0.50000  0.25000  0.12500  1.0000
  La  La593     1.0  0.59375  0.34375  0.40625  1.0000
  La  La594     1.0  0.59375  0.46875  0.28125  1.0000
  La  La595     1.0  0.59375  0.40625  0.34375  1.0000
  La  La596     1.0  0.59375  0.28125  0.46875  1.0000
  La  La597     1.0  0.53125  0.28125  0.40625  1.0000
  La  La598     1.0  0.53125  0.40625  0.28125  1.0000
  La  La599     1.0  0.53125  0.34375  0.46875  1.0000
  La  La600     1.0  0.53125  0.46875  0.34375  1.0000
  La  La601     1.0  0.65625  0.28125  0.28125  1.0000
  La  La602     1.0  0.65625  0.40625  0.40625  1.0000
  La  La603     1.0  0.65625  0.34375  0.34375  1.0000
  La  La604     1.0  0.65625  0.46875  0.46875  1.0000
  La  La605     1.0  0.71875  0.34375  0.28125  1.0000
  La  La606     1.0  0.71875  0.46875  0.40625  1.0000
  La  La607     1.0  0.71875  0.40625  0.46875  1.0000
  La  La608     1.0  0.71875  0.28125  0.34375  1.0000
  Zr  Zr593     1.0  0.59375  0.34375  0.28125  1.0000
  Zr  Zr594     1.0  0.59375  0.46875  0.40625  1.0000
  Zr  Zr595     1.0  0.59375  0.40625  0.46875  1.0000
  Zr  Zr596     1.0  0.59375  0.28125  0.34375  1.0000
  Zr  Zr597     1.0  0.53125  0.28125  0.28125  1.0000
  Zr  Zr598     1.0  0.53125  0.40625  0.40625  1.0000
  Zr  Zr599     1.0  0.53125  0.34375  0.34375  1.0000
  Zr  Zr600     1.0  0.53125  0.46875  0.46875  1.0000
  Zr  Zr601     1.0  0.65625  0.28125  0.40625  1.0000
  Zr  Zr602     1.0  0.65625  0.40625  0.28125  1.0000
  Zr  Zr603     1.0  0.65625  0.34375  0.46875  1.0000
  Zr  Zr604     1.0  0.65625  0.46875  0.34375  1.0000
  Zr  Zr605     1.0  0.71875  0.34375  0.40625  1.0000
  Zr  Zr606     1.0  0.71875  0.46875  0.28125  1.0000
  Zr  Zr607     1.0  0.71875  0.40625  0.34375  1.0000
  Zr  Zr608     1.0  0.71875  0.28125  0.46875  1.0000
  O   O2073     1.0  0.62500  0.37500  0.29910  1.0000
  O   O2074     1.0  0.62500  0.25000  0.42410  1.0000
  O   O2075     1.0  0.62500  0.32590  0.25000  1.0000
  O   O2076     1.0  0.62500  0.45090  0.37500  1.0000
  O   O2077     1.0  0.62500  0.37500  0.45090  1.0000
  O   O2078     1.0  0.62500  0.25000  0.32590  1.0000
  O   O2079     1.0  0.62500  0.42410  0.25000  1.0000
  O   O2080     1.0  0.62500  0.29910  0.37500  1.0000
  O   O2081     1.0  0.56250  0.31250  0.26340  1.0000
  O   O2082     1.0  0.56250  0.43750  0.38840  1.0000
  O   O2083     1.0  0.56250  0.26340  0.31250  1.0000
  O   O2084     1.0  0.56250  0.38840  0.43750  1.0000
  O   O2085     1.0  0.56250  0.31250  0.36160  1.0000
  O   O2086     1.0  0.56250  0.43750  0.48660  1.0000
  O   O2087     1.0  0.56250  0.36160  0.31250  1.0000
  O   O2088     1.0  0.56250  0.48660  0.43750  1.0000
  O   O2089     1.0  0.68750  0.31250  0.38840  1.0000
  O   O2090     1.0  0.68750  0.43750  0.26340  1.0000
  O   O2091     1.0  0.68750  0.26340  0.43750  1.0000
  O   O2092     1.0  0.68750  0.38840  0.31250  1.0000
  O   O2093     1.0  0.68750  0.31250  0.48660  1.0000
  O   O2094     1.0  0.68750  0.43750  0.36160  1.0000
  O   O2095     1.0  0.68750  0.36160  0.43750  1.0000
  O   O2096     1.0  0.68750  0.48660  0.31250  1.0000
  O   O2097     1.0  0.50000  0.37500  0.42410  1.0000
  O   O2098     1.0  0.50000  0.25000  0.29910  1.0000
  O   O2099     1.0  0.50000  0.32590  0.37500  1.0000
  O   O2100     1.0  0.50000  0.45090  0.25000  1.0000
  O   O2101     1.0  0.50000  0.37500  0.32590  1.0000
  O   O2102     1.0  0.50000  0.25000  0.45090  1.0000
  O   O2103     1.0  0.50000  0.42410  0.37500  1.0000
  O   O2104     1.0  0.50000  0.29910  0.25000  1.0000
  O   O2105     1.0  0.57590  0.37500  0.25000  1.0000
  O   O2106     1.0  0.57590  0.25000  0.37500  1.0000
  O   O2107     1.0  0.51340  0.31250  0.31250  1.0000
  O   O2108     1.0  0.51340  0.43750  0.43750  1.0000
  O   O2109     1.0  0.63840  0.31250  0.43750  1.0000
  O   O2110     1.0  0.63840  0.43750  0.31250  1.0000
  O   O2111     1.0  0.70090  0.37500  0.37500  1.0000
  O   O2112     1.0  0.70090  0.25000  0.25000  1.0000
  O   O2113     1.0  0.67410  0.37500  0.25000  1.0000
  O   O2114     1.0  0.67410  0.25000  0.37500  1.0000
  O   O2115     1.0  0.61160  0.31250  0.31250  1.0000
  O   O2116     1.0  0.61160  0.43750  0.43750  1.0000
  O   O2117     1.0  0.73660  0.31250  0.43750  1.0000
  O   O2118     1.0  0.73660  0.43750  0.31250  1.0000
  O   O2119     1.0  0.54910  0.37500  0.37500  1.0000
  O   O2120     1.0  0.54910  0.25000  0.25000  1.0000
  O   O2121     1.0  0.62500  0.37500  0.37500  1.0000
  O   O2122     1.0  0.62500  0.25000  0.25000  1.0000
  O   O2123     1.0  0.56250  0.31250  0.43750  1.0000
  O   O2124     1.0  0.56250  0.43750  0.31250  1.0000
  O   O2125     1.0  0.68750  0.31250  0.31250  1.0000
  O   O2126     1.0  0.68750  0.43750  0.43750  1.0000
  O   O2127     1.0  0.50000  0.37500  0.25000  1.0000
  O   O2128     1.0  0.50000  0.25000  0.37500  1.0000
  La  La609     1.0  0.59375  0.34375  0.65625  1.0000
  La  La610     1.0  0.59375  0.46875  0.53125  1.0000
  La  La611     1.0  0.59375  0.40625  0.59375  1.0000
  La  La612     1.0  0.59375  0.28125  0.71875  1.0000
  La  La613     1.0  0.53125  0.28125  0.65625  1.0000
  La  La614     1.0  0.53125  0.40625  0.53125  1.0000
  La  La615     1.0  0.53125  0.34375  0.71875  1.0000
  La  La616     1.0  0.53125  0.46875  0.59375  1.0000
  La  La617     1.0  0.65625  0.28125  0.53125  1.0000
  La  La618     1.0  0.65625  0.40625  0.65625  1.0000
  La  La619     1.0  0.65625  0.34375  0.59375  1.0000
  La  La620     1.0  0.65625  0.46875  0.71875  1.0000
  La  La621     1.0  0.71875  0.34375  0.53125  1.0000
  La  La622     1.0  0.71875  0.46875  0.65625  1.0000
  La  La623     1.0  0.71875  0.40625  0.71875  1.0000
  La  La624     1.0  0.71875  0.28125  0.59375  1.0000
  Zr  Zr609     1.0  0.59375  0.34375  0.53125  1.0000
  Zr  Zr610     1.0  0.59375  0.46875  0.65625  1.0000
  Zr  Zr611     1.0  0.59375  0.40625  0.71875  1.0000
  Zr  Zr612     1.0  0.59375  0.28125  0.59375  1.0000
  Zr  Zr613     1.0  0.53125  0.28125  0.53125  1.0000
  Zr  Zr614     1.0  0.53125  0.40625  0.65625  1.0000
  Zr  Zr615     1.0  0.53125  0.34375  0.59375  1.0000
  Zr  Zr616     1.0  0.53125  0.46875  0.71875  1.0000
  Zr  Zr617     1.0  0.65625  0.28125  0.65625  1.0000
  Zr  Zr618     1.0  0.65625  0.40625  0.53125  1.0000
  Zr  Zr619     1.0  0.65625  0.34375  0.71875  1.0000
  Zr  Zr620     1.0  0.65625  0.46875  0.59375  1.0000
  Zr  Zr621     1.0  0.71875  0.34375  0.65625  1.0000
  Zr  Zr622     1.0  0.71875  0.46875  0.53125  1.0000
  Zr  Zr623     1.0  0.71875  0.40625  0.59375  1.0000
  Zr  Zr624     1.0  0.71875  0.28125  0.71875  1.0000
  O   O2129     1.0  0.62500  0.37500  0.54910  1.0000
  O   O2130     1.0  0.62500  0.25000  0.67410  1.0000
  O   O2131     1.0  0.62500  0.32590  0.50000  1.0000
  O   O2132     1.0  0.62500  0.45090  0.62500  1.0000
  O   O2133     1.0  0.62500  0.37500  0.70090  1.0000
  O   O2134     1.0  0.62500  0.25000  0.57590  1.0000
  O   O2135     1.0  0.62500  0.42410  0.50000  1.0000
  O   O2136     1.0  0.62500  0.29910  0.62500  1.0000
  O   O2137     1.0  0.56250  0.31250  0.51340  1.0000
  O   O2138     1.0  0.56250  0.43750  0.63840  1.0000
  O   O2139     1.0  0.56250  0.26340  0.56250  1.0000
  O   O2140     1.0  0.56250  0.38840  0.68750  1.0000
  O   O2141     1.0  0.56250  0.31250  0.61160  1.0000
  O   O2142     1.0  0.56250  0.43750  0.73660  1.0000
  O   O2143     1.0  0.56250  0.36160  0.56250  1.0000
  O   O2144     1.0  0.56250  0.48660  0.68750  1.0000
  O   O2145     1.0  0.68750  0.31250  0.63840  1.0000
  O   O2146     1.0  0.68750  0.43750  0.51340  1.0000
  O   O2147     1.0  0.68750  0.26340  0.68750  1.0000
  O   O2148     1.0  0.68750  0.38840  0.56250  1.0000
  O   O2149     1.0  0.68750  0.31250  0.73660  1.0000
  O   O2150     1.0  0.68750  0.43750  0.61160  1.0000
  O   O2151     1.0  0.68750  0.36160  0.68750  1.0000
  O   O2152     1.0  0.68750  0.48660  0.56250  1.0000
  O   O2153     1.0  0.50000  0.37500  0.67410  1.0000
  O   O2154     1.0  0.50000  0.25000  0.54910  1.0000
  O   O2155     1.0  0.50000  0.32590  0.62500  1.0000
  O   O2156     1.0  0.50000  0.45090  0.50000  1.0000
  O   O2157     1.0  0.50000  0.37500  0.57590  1.0000
  O   O2158     1.0  0.50000  0.25000  0.70090  1.0000
  O   O2159     1.0  0.50000  0.42410  0.62500  1.0000
  O   O2160     1.0  0.50000  0.29910  0.50000  1.0000
  O   O2161     1.0  0.57590  0.37500  0.50000  1.0000
  O   O2162     1.0  0.57590  0.25000  0.62500  1.0000
  O   O2163     1.0  0.51340  0.31250  0.56250  1.0000
  O   O2164     1.0  0.51340  0.43750  0.68750  1.0000
  O   O2165     1.0  0.63840  0.31250  0.68750  1.0000
  O   O2166     1.0  0.63840  0.43750  0.56250  1.0000
  O   O2167     1.0  0.70090  0.37500  0.62500  1.0000
  O   O2168     1.0  0.70090  0.25000  0.50000  1.0000
  O   O2169     1.0  0.67410  0.37500  0.50000  1.0000
  O   O2170     1.0  0.67410  0.25000  0.62500  1.0000
  O   O2171     1.0  0.61160  0.31250  0.56250  1.0000
  O   O2172     1.0  0.61160  0.43750  0.68750  1.0000
  O   O2173     1.0  0.73660  0.31250  0.68750  1.0000
  O   O2174     1.0  0.73660  0.43750  0.56250  1.0000
  O   O2175     1.0  0.54910  0.37500  0.62500  1.0000
  O   O2176     1.0  0.54910  0.25000  0.50000  1.0000
  O   O2177     1.0  0.62500  0.37500  0.62500  1.0000
  O   O2178     1.0  0.62500  0.25000  0.50000  1.0000
  O   O2179     1.0  0.56250  0.31250  0.68750  1.0000
  O   O2180     1.0  0.56250  0.43750  0.56250  1.0000
  O   O2181     1.0  0.68750  0.31250  0.56250  1.0000
  O   O2182     1.0  0.68750  0.43750  0.68750  1.0000
  O   O2183     1.0  0.50000  0.37500  0.50000  1.0000
  O   O2184     1.0  0.50000  0.25000  0.62500  1.0000
  La  La625     1.0  0.59375  0.34375  0.90625  1.0000
  La  La626     1.0  0.59375  0.46875  0.78125  1.0000
  La  La627     1.0  0.59375  0.40625  0.84375  1.0000
  La  La628     1.0  0.59375  0.28125  0.96875  1.0000
  La  La629     1.0  0.53125  0.28125  0.90625  1.0000
  La  La630     1.0  0.53125  0.40625  0.78125  1.0000
  La  La631     1.0  0.53125  0.34375  0.96875  1.0000
  La  La632     1.0  0.53125  0.46875  0.84375  1.0000
  La  La633     1.0  0.65625  0.28125  0.78125  1.0000
  La  La634     1.0  0.65625  0.40625  0.90625  1.0000
  La  La635     1.0  0.65625  0.34375  0.84375  1.0000
  La  La636     1.0  0.65625  0.46875  0.96875  1.0000
  La  La637     1.0  0.71875  0.34375  0.78125  1.0000
  La  La638     1.0  0.71875  0.46875  0.90625  1.0000
  La  La639     1.0  0.71875  0.40625  0.96875  1.0000
  La  La640     1.0  0.71875  0.28125  0.84375  1.0000
  Zr  Zr625     1.0  0.59375  0.34375  0.78125  1.0000
  Zr  Zr626     1.0  0.59375  0.46875  0.90625  1.0000
  Zr  Zr627     1.0  0.59375  0.40625  0.96875  1.0000
  Zr  Zr628     1.0  0.59375  0.28125  0.84375  1.0000
  Zr  Zr629     1.0  0.53125  0.28125  0.78125  1.0000
  Zr  Zr630     1.0  0.53125  0.40625  0.90625  1.0000
  Zr  Zr631     1.0  0.53125  0.34375  0.84375  1.0000
  Zr  Zr632     1.0  0.53125  0.46875  0.96875  1.0000
  Zr  Zr633     1.0  0.65625  0.28125  0.90625  1.0000
  Zr  Zr634     1.0  0.65625  0.40625  0.78125  1.0000
  Zr  Zr635     1.0  0.65625  0.34375  0.96875  1.0000
  Zr  Zr636     1.0  0.65625  0.46875  0.84375  1.0000
  Zr  Zr637     1.0  0.71875  0.34375  0.90625  1.0000
  Zr  Zr638     1.0  0.71875  0.46875  0.78125  1.0000
  Zr  Zr639     1.0  0.71875  0.40625  0.84375  1.0000
  Zr  Zr640     1.0  0.71875  0.28125  0.96875  1.0000
  O   O2185     1.0  0.62500  0.37500  0.79910  1.0000
  O   O2186     1.0  0.62500  0.25000  0.92410  1.0000
  O   O2187     1.0  0.62500  0.32590  0.75000  1.0000
  O   O2188     1.0  0.62500  0.45090  0.87500  1.0000
  O   O2189     1.0  0.62500  0.37500  0.95090  1.0000
  O   O2190     1.0  0.62500  0.25000  0.82590  1.0000
  O   O2191     1.0  0.62500  0.42410  0.75000  1.0000
  O   O2192     1.0  0.62500  0.29910  0.87500  1.0000
  O   O2193     1.0  0.56250  0.31250  0.76340  1.0000
  O   O2194     1.0  0.56250  0.43750  0.88840  1.0000
  O   O2195     1.0  0.56250  0.26340  0.81250  1.0000
  O   O2196     1.0  0.56250  0.38840  0.93750  1.0000
  O   O2197     1.0  0.56250  0.31250  0.86160  1.0000
  O   O2198     1.0  0.56250  0.43750  0.98660  1.0000
  O   O2199     1.0  0.56250  0.36160  0.81250  1.0000
  O   O2200     1.0  0.56250  0.48660  0.93750  1.0000
  O   O2201     1.0  0.68750  0.31250  0.88840  1.0000
  O   O2202     1.0  0.68750  0.43750  0.76340  1.0000
  O   O2203     1.0  0.68750  0.26340  0.93750  1.0000
  O   O2204     1.0  0.68750  0.38840  0.81250  1.0000
  O   O2205     1.0  0.68750  0.31250  0.98660  1.0000
  O   O2206     1.0  0.68750  0.43750  0.86160  1.0000
  O   O2207     1.0  0.68750  0.36160  0.93750  1.0000
  O   O2208     1.0  0.68750  0.48660  0.81250  1.0000
  O   O2209     1.0  0.50000  0.37500  0.92410  1.0000
  O   O2210     1.0  0.50000  0.25000  0.79910  1.0000
  O   O2211     1.0  0.50000  0.32590  0.87500  1.0000
  O   O2212     1.0  0.50000  0.45090  0.75000  1.0000
  O   O2213     1.0  0.50000  0.37500  0.82590  1.0000
  O   O2214     1.0  0.50000  0.25000  0.95090  1.0000
  O   O2215     1.0  0.50000  0.42410  0.87500  1.0000
  O   O2216     1.0  0.50000  0.29910  0.75000  1.0000
  O   O2217     1.0  0.57590  0.37500  0.75000  1.0000
  O   O2218     1.0  0.57590  0.25000  0.87500  1.0000
  O   O2219     1.0  0.51340  0.31250  0.81250  1.0000
  O   O2220     1.0  0.51340  0.43750  0.93750  1.0000
  O   O2221     1.0  0.63840  0.31250  0.93750  1.0000
  O   O2222     1.0  0.63840  0.43750  0.81250  1.0000
  O   O2223     1.0  0.70090  0.37500  0.87500  1.0000
  O   O2224     1.0  0.70090  0.25000  0.75000  1.0000
  O   O2225     1.0  0.67410  0.37500  0.75000  1.0000
  O   O2226     1.0  0.67410  0.25000  0.87500  1.0000
  O   O2227     1.0  0.61160  0.31250  0.81250  1.0000
  O   O2228     1.0  0.61160  0.43750  0.93750  1.0000
  O   O2229     1.0  0.73660  0.31250  0.93750  1.0000
  O   O2230     1.0  0.73660  0.43750  0.81250  1.0000
  O   O2231     1.0  0.54910  0.37500  0.87500  1.0000
  O   O2232     1.0  0.54910  0.25000  0.75000  1.0000
  O   O2233     1.0  0.62500  0.37500  0.87500  1.0000
  O   O2234     1.0  0.62500  0.25000  0.75000  1.0000
  O   O2235     1.0  0.56250  0.31250  0.93750  1.0000
  O   O2236     1.0  0.56250  0.43750  0.81250  1.0000
  O   O2237     1.0  0.68750  0.31250  0.81250  1.0000
  O   O2238     1.0  0.68750  0.43750  0.93750  1.0000
  O   O2239     1.0  0.50000  0.37500  0.75000  1.0000
  O   O2240     1.0  0.50000  0.25000  0.87500  1.0000
  La  La641     1.0  0.59375  0.59375  0.15625  1.0000
  La  La642     1.0  0.59375  0.71875  0.03125  1.0000
  La  La643     1.0  0.59375  0.65625  0.09375  1.0000
  La  La644     1.0  0.59375  0.53125  0.21875  1.0000
  La  La645     1.0  0.53125  0.53125  0.15625  1.0000
  La  La646     1.0  0.53125  0.65625  0.03125  1.0000
  La  La647     1.0  0.53125  0.59375  0.21875  1.0000
  La  La648     1.0  0.53125  0.71875  0.09375  1.0000
  La  La649     1.0  0.65625  0.53125  0.03125  1.0000
  La  La650     1.0  0.65625  0.65625  0.15625  1.0000
  La  La651     1.0  0.65625  0.59375  0.09375  1.0000
  La  La652     1.0  0.65625  0.71875  0.21875  1.0000
  La  La653     1.0  0.71875  0.59375  0.03125  1.0000
  La  La654     1.0  0.71875  0.71875  0.15625  1.0000
  La  La655     1.0  0.71875  0.65625  0.21875  1.0000
  La  La656     1.0  0.71875  0.53125  0.09375  1.0000
  Zr  Zr641     1.0  0.59375  0.59375  0.03125  1.0000
  Zr  Zr642     1.0  0.59375  0.71875  0.15625  1.0000
  Zr  Zr643     1.0  0.59375  0.65625  0.21875  1.0000
  Zr  Zr644     1.0  0.59375  0.53125  0.09375  1.0000
  Zr  Zr645     1.0  0.53125  0.53125  0.03125  1.0000
  Zr  Zr646     1.0  0.53125  0.65625  0.15625  1.0000
  Zr  Zr647     1.0  0.53125  0.59375  0.09375  1.0000
  Zr  Zr648     1.0  0.53125  0.71875  0.21875  1.0000
  Zr  Zr649     1.0  0.65625  0.53125  0.15625  1.0000
  Zr  Zr650     1.0  0.65625  0.65625  0.03125  1.0000
  Zr  Zr651     1.0  0.65625  0.59375  0.21875  1.0000
  Zr  Zr652     1.0  0.65625  0.71875  0.09375  1.0000
  Zr  Zr653     1.0  0.71875  0.59375  0.15625  1.0000
  Zr  Zr654     1.0  0.71875  0.71875  0.03125  1.0000
  Zr  Zr655     1.0  0.71875  0.65625  0.09375  1.0000
  Zr  Zr656     1.0  0.71875  0.53125  0.21875  1.0000
  O   O2241     1.0  0.62500  0.62500  0.04910  1.0000
  O   O2242     1.0  0.62500  0.50000  0.17410  1.0000
  O   O2243     1.0  0.62500  0.57590  0.00000  1.0000
  O   O2244     1.0  0.62500  0.70090  0.12500  1.0000
  O   O2245     1.0  0.62500  0.62500  0.20090  1.0000
  O   O2246     1.0  0.62500  0.50000  0.07590  1.0000
  O   O2247     1.0  0.62500  0.67410  0.00000  1.0000
  O   O2248     1.0  0.62500  0.54910  0.12500  1.0000
  O   O2249     1.0  0.56250  0.56250  0.01340  1.0000
  O   O2250     1.0  0.56250  0.68750  0.13840  1.0000
  O   O2251     1.0  0.56250  0.51340  0.06250  1.0000
  O   O2252     1.0  0.56250  0.63840  0.18750  1.0000
  O   O2253     1.0  0.56250  0.56250  0.11160  1.0000
  O   O2254     1.0  0.56250  0.68750  0.23660  1.0000
  O   O2255     1.0  0.56250  0.61160  0.06250  1.0000
  O   O2256     1.0  0.56250  0.73660  0.18750  1.0000
  O   O2257     1.0  0.68750  0.56250  0.13840  1.0000
  O   O2258     1.0  0.68750  0.68750  0.01340  1.0000
  O   O2259     1.0  0.68750  0.51340  0.18750  1.0000
  O   O2260     1.0  0.68750  0.63840  0.06250  1.0000
  O   O2261     1.0  0.68750  0.56250  0.23660  1.0000
  O   O2262     1.0  0.68750  0.68750  0.11160  1.0000
  O   O2263     1.0  0.68750  0.61160  0.18750  1.0000
  O   O2264     1.0  0.68750  0.73660  0.06250  1.0000
  O   O2265     1.0  0.50000  0.62500  0.17410  1.0000
  O   O2266     1.0  0.50000  0.50000  0.04910  1.0000
  O   O2267     1.0  0.50000  0.57590  0.12500  1.0000
  O   O2268     1.0  0.50000  0.70090  0.00000  1.0000
  O   O2269     1.0  0.50000  0.62500  0.07590  1.0000
  O   O2270     1.0  0.50000  0.50000  0.20090  1.0000
  O   O2271     1.0  0.50000  0.67410  0.12500  1.0000
  O   O2272     1.0  0.50000  0.54910  0.00000  1.0000
  O   O2273     1.0  0.57590  0.62500  0.00000  1.0000
  O   O2274     1.0  0.57590  0.50000  0.12500  1.0000
  O   O2275     1.0  0.51340  0.56250  0.06250  1.0000
  O   O2276     1.0  0.51340  0.68750  0.18750  1.0000
  O   O2277     1.0  0.63840  0.56250  0.18750  1.0000
  O   O2278     1.0  0.63840  0.68750  0.06250  1.0000
  O   O2279     1.0  0.70090  0.62500  0.12500  1.0000
  O   O2280     1.0  0.70090  0.50000  0.00000  1.0000
  O   O2281     1.0  0.67410  0.62500  0.00000  1.0000
  O   O2282     1.0  0.67410  0.50000  0.12500  1.0000
  O   O2283     1.0  0.61160  0.56250  0.06250  1.0000
  O   O2284     1.0  0.61160  0.68750  0.18750  1.0000
  O   O2285     1.0  0.73660  0.56250  0.18750  1.0000
  O   O2286     1.0  0.73660  0.68750  0.06250  1.0000
  O   O2287     1.0  0.54910  0.62500  0.12500  1.0000
  O   O2288     1.0  0.54910  0.50000  0.00000  1.0000
  O   O2289     1.0  0.62500  0.62500  0.12500  1.0000
  O   O2290     1.0  0.62500  0.50000  0.00000  1.0000
  O   O2291     1.0  0.56250  0.56250  0.18750  1.0000
  O   O2292     1.0  0.56250  0.68750  0.06250  1.0000
  O   O2293     1.0  0.68750  0.56250  0.06250  1.0000
  O   O2294     1.0  0.68750  0.68750  0.18750  1.0000
  O   O2295     1.0  0.50000  0.62500  0.00000  1.0000
  O   O2296     1.0  0.50000  0.50000  0.12500  1.0000
  La  La657     1.0  0.59375  0.59375  0.40625  1.0000
  La  La658     1.0  0.59375  0.71875  0.28125  1.0000
  La  La659     1.0  0.59375  0.65625  0.34375  1.0000
  La  La660     1.0  0.59375  0.53125  0.46875  1.0000
  La  La661     1.0  0.53125  0.53125  0.40625  1.0000
  La  La662     1.0  0.53125  0.65625  0.28125  1.0000
  La  La663     1.0  0.53125  0.59375  0.46875  1.0000
  La  La664     1.0  0.53125  0.71875  0.34375  1.0000
  La  La665     1.0  0.65625  0.53125  0.28125  1.0000
  La  La666     1.0  0.65625  0.65625  0.40625  1.0000
  La  La667     1.0  0.65625  0.59375  0.34375  1.0000
  La  La668     1.0  0.65625  0.71875  0.46875  1.0000
  La  La669     1.0  0.71875  0.59375  0.28125  1.0000
  La  La670     1.0  0.71875  0.71875  0.40625  1.0000
  La  La671     1.0  0.71875  0.65625  0.46875  1.0000
  La  La672     1.0  0.71875  0.53125  0.34375  1.0000
  Zr  Zr657     1.0  0.59375  0.59375  0.28125  1.0000
  Zr  Zr658     1.0  0.59375  0.71875  0.40625  1.0000
  Zr  Zr659     1.0  0.59375  0.65625  0.46875  1.0000
  Zr  Zr660     1.0  0.59375  0.53125  0.34375  1.0000
  Zr  Zr661     1.0  0.53125  0.53125  0.28125  1.0000
  Zr  Zr662     1.0  0.53125  0.65625  0.40625  1.0000
  Zr  Zr663     1.0  0.53125  0.59375  0.34375  1.0000
  Zr  Zr664     1.0  0.53125  0.71875  0.46875  1.0000
  Zr  Zr665     1.0  0.65625  0.53125  0.40625  1.0000
  Zr  Zr666     1.0  0.65625  0.65625  0.28125  1.0000
  Zr  Zr667     1.0  0.65625  0.59375  0.46875  1.0000
  Zr  Zr668     1.0  0.65625  0.71875  0.34375  1.0000
  Zr  Zr669     1.0  0.71875  0.59375  0.40625  1.0000
  Zr  Zr670     1.0  0.71875  0.71875  0.28125  1.0000
  Zr  Zr671     1.0  0.71875  0.65625  0.34375  1.0000
  Zr  Zr672     1.0  0.71875  0.53125  0.46875  1.0000
  O   O2297     1.0  0.62500  0.62500  0.29910  1.0000
  O   O2298     1.0  0.62500  0.50000  0.42410  1.0000
  O   O2299     1.0  0.62500  0.57590  0.25000  1.0000
  O   O2300     1.0  0.62500  0.70090  0.37500  1.0000
  O   O2301     1.0  0.62500  0.62500  0.45090  1.0000
  O   O2302     1.0  0.62500  0.50000  0.32590  1.0000
  O   O2303     1.0  0.62500  0.67410  0.25000  1.0000
  O   O2304     1.0  0.62500  0.54910  0.37500  1.0000
  O   O2305     1.0  0.56250  0.56250  0.26340  1.0000
  O   O2306     1.0  0.56250  0.68750  0.38840  1.0000
  O   O2307     1.0  0.56250  0.51340  0.31250  1.0000
  O   O2308     1.0  0.56250  0.63840  0.43750  1.0000
  O   O2309     1.0  0.56250  0.56250  0.36160  1.0000
  O   O2310     1.0  0.56250  0.68750  0.48660  1.0000
  O   O2311     1.0  0.56250  0.61160  0.31250  1.0000
  O   O2312     1.0  0.56250  0.73660  0.43750  1.0000
  O   O2313     1.0  0.68750  0.56250  0.38840  1.0000
  O   O2314     1.0  0.68750  0.68750  0.26340  1.0000
  O   O2315     1.0  0.68750  0.51340  0.43750  1.0000
  O   O2316     1.0  0.68750  0.63840  0.31250  1.0000
  O   O2317     1.0  0.68750  0.56250  0.48660  1.0000
  O   O2318     1.0  0.68750  0.68750  0.36160  1.0000
  O   O2319     1.0  0.68750  0.61160  0.43750  1.0000
  O   O2320     1.0  0.68750  0.73660  0.31250  1.0000
  O   O2321     1.0  0.50000  0.62500  0.42410  1.0000
  O   O2322     1.0  0.50000  0.50000  0.29910  1.0000
  O   O2323     1.0  0.50000  0.57590  0.37500  1.0000
  O   O2324     1.0  0.50000  0.70090  0.25000  1.0000
  O   O2325     1.0  0.50000  0.62500  0.32590  1.0000
  O   O2326     1.0  0.50000  0.50000  0.45090  1.0000
  O   O2327     1.0  0.50000  0.67410  0.37500  1.0000
  O   O2328     1.0  0.50000  0.54910  0.25000  1.0000
  O   O2329     1.0  0.57590  0.62500  0.25000  1.0000
  O   O2330     1.0  0.57590  0.50000  0.37500  1.0000
  O   O2331     1.0  0.51340  0.56250  0.31250  1.0000
  O   O2332     1.0  0.51340  0.68750  0.43750  1.0000
  O   O2333     1.0  0.63840  0.56250  0.43750  1.0000
  O   O2334     1.0  0.63840  0.68750  0.31250  1.0000
  O   O2335     1.0  0.70090  0.62500  0.37500  1.0000
  O   O2336     1.0  0.70090  0.50000  0.25000  1.0000
  O   O2337     1.0  0.67410  0.62500  0.25000  1.0000
  O   O2338     1.0  0.67410  0.50000  0.37500  1.0000
  O   O2339     1.0  0.61160  0.56250  0.31250  1.0000
  O   O2340     1.0  0.61160  0.68750  0.43750  1.0000
  O   O2341     1.0  0.73660  0.56250  0.43750  1.0000
  O   O2342     1.0  0.73660  0.68750  0.31250  1.0000
  O   O2343     1.0  0.54910  0.62500  0.37500  1.0000
  O   O2344     1.0  0.54910  0.50000  0.25000  1.0000
  O   O2345     1.0  0.62500  0.62500  0.37500  1.0000
  O   O2346     1.0  0.62500  0.50000  0.25000  1.0000
  O   O2347     1.0  0.56250  0.56250  0.43750  1.0000
  O   O2348     1.0  0.56250  0.68750  0.31250  1.0000
  O   O2349     1.0  0.68750  0.56250  0.31250  1.0000
  O   O2350     1.0  0.68750  0.68750  0.43750  1.0000
  O   O2351     1.0  0.50000  0.62500  0.25000  1.0000
  O   O2352     1.0  0.50000  0.50000  0.37500  1.0000
  La  La673     1.0  0.59375  0.59375  0.65625  1.0000
  La  La674     1.0  0.59375  0.71875  0.53125  1.0000
  La  La675     1.0  0.59375  0.65625  0.59375  1.0000
  La  La676     1.0  0.59375  0.53125  0.71875  1.0000
  La  La677     1.0  0.53125  0.53125  0.65625  1.0000
  La  La678     1.0  0.53125  0.65625  0.53125  1.0000
  La  La679     1.0  0.53125  0.59375  0.71875  1.0000
  La  La680     1.0  0.53125  0.71875  0.59375  1.0000
  La  La681     1.0  0.65625  0.53125  0.53125  1.0000
  La  La682     1.0  0.65625  0.65625  0.65625  1.0000
  La  La683     1.0  0.65625  0.59375  0.59375  1.0000
  La  La684     1.0  0.65625  0.71875  0.71875  1.0000
  La  La685     1.0  0.71875  0.59375  0.53125  1.0000
  La  La686     1.0  0.71875  0.71875  0.65625  1.0000
  La  La687     1.0  0.71875  0.65625  0.71875  1.0000
  La  La688     1.0  0.71875  0.53125  0.59375  1.0000
  Zr  Zr673     1.0  0.59375  0.59375  0.53125  1.0000
  Zr  Zr674     1.0  0.59375  0.71875  0.65625  1.0000
  Zr  Zr675     1.0  0.59375  0.65625  0.71875  1.0000
  Zr  Zr676     1.0  0.59375  0.53125  0.59375  1.0000
  Zr  Zr677     1.0  0.53125  0.53125  0.53125  1.0000
  Zr  Zr678     1.0  0.53125  0.65625  0.65625  1.0000
  Zr  Zr679     1.0  0.53125  0.59375  0.59375  1.0000
  Zr  Zr680     1.0  0.53125  0.71875  0.71875  1.0000
  Zr  Zr681     1.0  0.65625  0.53125  0.65625  1.0000
  Zr  Zr682     1.0  0.65625  0.65625  0.53125  1.0000
  Zr  Zr683     1.0  0.65625  0.59375  0.71875  1.0000
  Zr  Zr684     1.0  0.65625  0.71875  0.59375  1.0000
  Zr  Zr685     1.0  0.71875  0.59375  0.65625  1.0000
  Zr  Zr686     1.0  0.71875  0.71875  0.53125  1.0000
  Zr  Zr687     1.0  0.71875  0.65625  0.59375  1.0000
  Zr  Zr688     1.0  0.71875  0.53125  0.71875  1.0000
  O   O2353     1.0  0.62500  0.62500  0.54910  1.0000
  O   O2354     1.0  0.62500  0.50000  0.67410  1.0000
  O   O2355     1.0  0.62500  0.57590  0.50000  1.0000
  O   O2356     1.0  0.62500  0.70090  0.62500  1.0000
  O   O2357     1.0  0.62500  0.62500  0.70090  1.0000
  O   O2358     1.0  0.62500  0.50000  0.57590  1.0000
  O   O2359     1.0  0.62500  0.67410  0.50000  1.0000
  O   O2360     1.0  0.62500  0.54910  0.62500  1.0000
  O   O2361     1.0  0.56250  0.56250  0.51340  1.0000
  O   O2362     1.0  0.56250  0.68750  0.63840  1.0000
  O   O2363     1.0  0.56250  0.51340  0.56250  1.0000
  O   O2364     1.0  0.56250  0.63840  0.68750  1.0000
  O   O2365     1.0  0.56250  0.56250  0.61160  1.0000
  O   O2366     1.0  0.56250  0.68750  0.73660  1.0000
  O   O2367     1.0  0.56250  0.61160  0.56250  1.0000
  O   O2368     1.0  0.56250  0.73660  0.68750  1.0000
  O   O2369     1.0  0.68750  0.56250  0.63840  1.0000
  O   O2370     1.0  0.68750  0.68750  0.51340  1.0000
  O   O2371     1.0  0.68750  0.51340  0.68750  1.0000
  O   O2372     1.0  0.68750  0.63840  0.56250  1.0000
  O   O2373     1.0  0.68750  0.56250  0.73660  1.0000
  O   O2374     1.0  0.68750  0.68750  0.61160  1.0000
  O   O2375     1.0  0.68750  0.61160  0.68750  1.0000
  O   O2376     1.0  0.68750  0.73660  0.56250  1.0000
  O   O2377     1.0  0.50000  0.62500  0.67410  1.0000
  O   O2378     1.0  0.50000  0.50000  0.54910  1.0000
  O   O2379     1.0  0.50000  0.57590  0.62500  1.0000
  O   O2380     1.0  0.50000  0.70090  0.50000  1.0000
  O   O2381     1.0  0.50000  0.62500  0.57590  1.0000
  O   O2382     1.0  0.50000  0.50000  0.70090  1.0000
  O   O2383     1.0  0.50000  0.67410  0.62500  1.0000
  O   O2384     1.0  0.50000  0.54910  0.50000  1.0000
  O   O2385     1.0  0.57590  0.62500  0.50000  1.0000
  O   O2386     1.0  0.57590  0.50000  0.62500  1.0000
  O   O2387     1.0  0.51340  0.56250  0.56250  1.0000
  O   O2388     1.0  0.51340  0.68750  0.68750  1.0000
  O   O2389     1.0  0.63840  0.56250  0.68750  1.0000
  O   O2390     1.0  0.63840  0.68750  0.56250  1.0000
  O   O2391     1.0  0.70090  0.62500  0.62500  1.0000
  O   O2392     1.0  0.70090  0.50000  0.50000  1.0000
  O   O2393     1.0  0.67410  0.62500  0.50000  1.0000
  O   O2394     1.0  0.67410  0.50000  0.62500  1.0000
  O   O2395     1.0  0.61160  0.56250  0.56250  1.0000
  O   O2396     1.0  0.61160  0.68750  0.68750  1.0000
  O   O2397     1.0  0.73660  0.56250  0.68750  1.0000
  O   O2398     1.0  0.73660  0.68750  0.56250  1.0000
  O   O2399     1.0  0.54910  0.62500  0.62500  1.0000
  O   O2400     1.0  0.54910  0.50000  0.50000  1.0000
  O   O2401     1.0  0.62500  0.62500  0.62500  1.0000
  O   O2402     1.0  0.62500  0.50000  0.50000  1.0000
  O   O2403     1.0  0.56250  0.56250  0.68750  1.0000
  O   O2404     1.0  0.56250  0.68750  0.56250  1.0000
  O   O2405     1.0  0.68750  0.56250  0.56250  1.0000
  O   O2406     1.0  0.68750  0.68750  0.68750  1.0000
  O   O2407     1.0  0.50000  0.62500  0.50000  1.0000
  O   O2408     1.0  0.50000  0.50000  0.62500  1.0000
  La  La689     1.0  0.59375  0.59375  0.90625  1.0000
  La  La690     1.0  0.59375  0.71875  0.78125  1.0000
  La  La691     1.0  0.59375  0.65625  0.84375  1.0000
  La  La692     1.0  0.59375  0.53125  0.96875  1.0000
  La  La693     1.0  0.53125  0.53125  0.90625  1.0000
  La  La694     1.0  0.53125  0.65625  0.78125  1.0000
  La  La695     1.0  0.53125  0.59375  0.96875  1.0000
  La  La696     1.0  0.53125  0.71875  0.84375  1.0000
  La  La697     1.0  0.65625  0.53125  0.78125  1.0000
  La  La698     1.0  0.65625  0.65625  0.90625  1.0000
  La  La699     1.0  0.65625  0.59375  0.84375  1.0000
  La  La700     1.0  0.65625  0.71875  0.96875  1.0000
  La  La701     1.0  0.71875  0.59375  0.78125  1.0000
  La  La702     1.0  0.71875  0.71875  0.90625  1.0000
  La  La703     1.0  0.71875  0.65625  0.96875  1.0000
  La  La704     1.0  0.71875  0.53125  0.84375  1.0000
  Zr  Zr689     1.0  0.59375  0.59375  0.78125  1.0000
  Zr  Zr690     1.0  0.59375  0.71875  0.90625  1.0000
  Zr  Zr691     1.0  0.59375  0.65625  0.96875  1.0000
  Zr  Zr692     1.0  0.59375  0.53125  0.84375  1.0000
  Zr  Zr693     1.0  0.53125  0.53125  0.78125  1.0000
  Zr  Zr694     1.0  0.53125  0.65625  0.90625  1.0000
  Zr  Zr695     1.0  0.53125  0.59375  0.84375  1.0000
  Zr  Zr696     1.0  0.53125  0.71875  0.96875  1.0000
  Zr  Zr697     1.0  0.65625  0.53125  0.90625  1.0000
  Zr  Zr698     1.0  0.65625  0.65625  0.78125  1.0000
  Zr  Zr699     1.0  0.65625  0.59375  0.96875  1.0000
  Zr  Zr700     1.0  0.65625  0.71875  0.84375  1.0000
  Zr  Zr701     1.0  0.71875  0.59375  0.90625  1.0000
  Zr  Zr702     1.0  0.71875  0.71875  0.78125  1.0000
  Zr  Zr703     1.0  0.71875  0.65625  0.84375  1.0000
  Zr  Zr704     1.0  0.71875  0.53125  0.96875  1.0000
  O   O2409     1.0  0.62500  0.62500  0.79910  1.0000
  O   O2410     1.0  0.62500  0.50000  0.92410  1.0000
  O   O2411     1.0  0.62500  0.57590  0.75000  1.0000
  O   O2412     1.0  0.62500  0.70090  0.87500  1.0000
  O   O2413     1.0  0.62500  0.62500  0.95090  1.0000
  O   O2414     1.0  0.62500  0.50000  0.82590  1.0000
  O   O2415     1.0  0.62500  0.67410  0.75000  1.0000
  O   O2416     1.0  0.62500  0.54910  0.87500  1.0000
  O   O2417     1.0  0.56250  0.56250  0.76340  1.0000
  O   O2418     1.0  0.56250  0.68750  0.88840  1.0000
  O   O2419     1.0  0.56250  0.51340  0.81250  1.0000
  O   O2420     1.0  0.56250  0.63840  0.93750  1.0000
  O   O2421     1.0  0.56250  0.56250  0.86160  1.0000
  O   O2422     1.0  0.56250  0.68750  0.98660  1.0000
  O   O2423     1.0  0.56250  0.61160  0.81250  1.0000
  O   O2424     1.0  0.56250  0.73660  0.93750  1.0000
  O   O2425     1.0  0.68750  0.56250  0.88840  1.0000
  O   O2426     1.0  0.68750  0.68750  0.76340  1.0000
  O   O2427     1.0  0.68750  0.51340  0.93750  1.0000
  O   O2428     1.0  0.68750  0.63840  0.81250  1.0000
  O   O2429     1.0  0.68750  0.56250  0.98660  1.0000
  O   O2430     1.0  0.68750  0.68750  0.86160  1.0000
  O   O2431     1.0  0.68750  0.61160  0.93750  1.0000
  O   O2432     1.0  0.68750  0.73660  0.81250  1.0000
  O   O2433     1.0  0.50000  0.62500  0.92410  1.0000
  O   O2434     1.0  0.50000  0.50000  0.79910  1.0000
  O   O2435     1.0  0.50000  0.57590  0.87500  1.0000
  O   O2436     1.0  0.50000  0.70090  0.75000  1.0000
  O   O2437     1.0  0.50000  0.62500  0.82590  1.0000
  O   O2438     1.0  0.50000  0.50000  0.95090  1.0000
  O   O2439     1.0  0.50000  0.67410  0.87500  1.0000
  O   O2440     1.0  0.50000  0.54910  0.75000  1.0000
  O   O2441     1.0  0.57590  0.62500  0.75000  1.0000
  O   O2442     1.0  0.57590  0.50000  0.87500  1.0000
  O   O2443     1.0  0.51340  0.56250  0.81250  1.0000
  O   O2444     1.0  0.51340  0.68750  0.93750  1.0000
  O   O2445     1.0  0.63840  0.56250  0.93750  1.0000
  O   O2446     1.0  0.63840  0.68750  0.81250  1.0000
  O   O2447     1.0  0.70090  0.62500  0.87500  1.0000
  O   O2448     1.0  0.70090  0.50000  0.75000  1.0000
  O   O2449     1.0  0.67410  0.62500  0.75000  1.0000
  O   O2450     1.0  0.67410  0.50000  0.87500  1.0000
  O   O2451     1.0  0.61160  0.56250  0.81250  1.0000
  O   O2452     1.0  0.61160  0.68750  0.93750  1.0000
  O   O2453     1.0  0.73660  0.56250  0.93750  1.0000
  O   O2454     1.0  0.73660  0.68750  0.81250  1.0000
  O   O2455     1.0  0.54910  0.62500  0.87500  1.0000
  O   O2456     1.0  0.54910  0.50000  0.75000  1.0000
  O   O2457     1.0  0.62500  0.62500  0.87500  1.0000
  O   O2458     1.0  0.62500  0.50000  0.75000  1.0000
  O   O2459     1.0  0.56250  0.56250  0.93750  1.0000
  O   O2460     1.0  0.56250  0.68750  0.81250  1.0000
  O   O2461     1.0  0.68750  0.56250  0.81250  1.0000
  O   O2462     1.0  0.68750  0.68750  0.93750  1.0000
  O   O2463     1.0  0.50000  0.62500  0.75000  1.0000
  O   O2464     1.0  0.50000  0.50000  0.87500  1.0000
  La  La705     1.0  0.59375  0.84375  0.15625  1.0000
  La  La706     1.0  0.59375  0.96875  0.03125  1.0000
  La  La707     1.0  0.59375  0.90625  0.09375  1.0000
  La  La708     1.0  0.59375  0.78125  0.21875  1.0000
  La  La709     1.0  0.53125  0.78125  0.15625  1.0000
  La  La710     1.0  0.53125  0.90625  0.03125  1.0000
  La  La711     1.0  0.53125  0.84375  0.21875  1.0000
  La  La712     1.0  0.53125  0.96875  0.09375  1.0000
  La  La713     1.0  0.65625  0.78125  0.03125  1.0000
  La  La714     1.0  0.65625  0.90625  0.15625  1.0000
  La  La715     1.0  0.65625  0.84375  0.09375  1.0000
  La  La716     1.0  0.65625  0.96875  0.21875  1.0000
  La  La717     1.0  0.71875  0.84375  0.03125  1.0000
  La  La718     1.0  0.71875  0.96875  0.15625  1.0000
  La  La719     1.0  0.71875  0.90625  0.21875  1.0000
  La  La720     1.0  0.71875  0.78125  0.09375  1.0000
  Zr  Zr705     1.0  0.59375  0.84375  0.03125  1.0000
  Zr  Zr706     1.0  0.59375  0.96875  0.15625  1.0000
  Zr  Zr707     1.0  0.59375  0.90625  0.21875  1.0000
  Zr  Zr708     1.0  0.59375  0.78125  0.09375  1.0000
  Zr  Zr709     1.0  0.53125  0.78125  0.03125  1.0000
  Zr  Zr710     1.0  0.53125  0.90625  0.15625  1.0000
  Zr  Zr711     1.0  0.53125  0.84375  0.09375  1.0000
  Zr  Zr712     1.0  0.53125  0.96875  0.21875  1.0000
  Zr  Zr713     1.0  0.65625  0.78125  0.15625  1.0000
  Zr  Zr714     1.0  0.65625  0.90625  0.03125  1.0000
  Zr  Zr715     1.0  0.65625  0.84375  0.21875  1.0000
  Zr  Zr716     1.0  0.65625  0.96875  0.09375  1.0000
  Zr  Zr717     1.0  0.71875  0.84375  0.15625  1.0000
  Zr  Zr718     1.0  0.71875  0.96875  0.03125  1.0000
  Zr  Zr719     1.0  0.71875  0.90625  0.09375  1.0000
  Zr  Zr720     1.0  0.71875  0.78125  0.21875  1.0000
  O   O2465     1.0  0.62500  0.87500  0.04910  1.0000
  O   O2466     1.0  0.62500  0.75000  0.17410  1.0000
  O   O2467     1.0  0.62500  0.82590  0.00000  1.0000
  O   O2468     1.0  0.62500  0.95090  0.12500  1.0000
  O   O2469     1.0  0.62500  0.87500  0.20090  1.0000
  O   O2470     1.0  0.62500  0.75000  0.07590  1.0000
  O   O2471     1.0  0.62500  0.92410  0.00000  1.0000
  O   O2472     1.0  0.62500  0.79910  0.12500  1.0000
  O   O2473     1.0  0.56250  0.81250  0.01340  1.0000
  O   O2474     1.0  0.56250  0.93750  0.13840  1.0000
  O   O2475     1.0  0.56250  0.76340  0.06250  1.0000
  O   O2476     1.0  0.56250  0.88840  0.18750  1.0000
  O   O2477     1.0  0.56250  0.81250  0.11160  1.0000
  O   O2478     1.0  0.56250  0.93750  0.23660  1.0000
  O   O2479     1.0  0.56250  0.86160  0.06250  1.0000
  O   O2480     1.0  0.56250  0.98660  0.18750  1.0000
  O   O2481     1.0  0.68750  0.81250  0.13840  1.0000
  O   O2482     1.0  0.68750  0.93750  0.01340  1.0000
  O   O2483     1.0  0.68750  0.76340  0.18750  1.0000
  O   O2484     1.0  0.68750  0.88840  0.06250  1.0000
  O   O2485     1.0  0.68750  0.81250  0.23660  1.0000
  O   O2486     1.0  0.68750  0.93750  0.11160  1.0000
  O   O2487     1.0  0.68750  0.86160  0.18750  1.0000
  O   O2488     1.0  0.68750  0.98660  0.06250  1.0000
  O   O2489     1.0  0.50000  0.87500  0.17410  1.0000
  O   O2490     1.0  0.50000  0.75000  0.04910  1.0000
  O   O2491     1.0  0.50000  0.82590  0.12500  1.0000
  O   O2492     1.0  0.50000  0.95090  0.00000  1.0000
  O   O2493     1.0  0.50000  0.87500  0.07590  1.0000
  O   O2494     1.0  0.50000  0.75000  0.20090  1.0000
  O   O2495     1.0  0.50000  0.92410  0.12500  1.0000
  O   O2496     1.0  0.50000  0.79910  0.00000  1.0000
  O   O2497     1.0  0.57590  0.87500  0.00000  1.0000
  O   O2498     1.0  0.57590  0.75000  0.12500  1.0000
  O   O2499     1.0  0.51340  0.81250  0.06250  1.0000
  O   O2500     1.0  0.51340  0.93750  0.18750  1.0000
  O   O2501     1.0  0.63840  0.81250  0.18750  1.0000
  O   O2502     1.0  0.63840  0.93750  0.06250  1.0000
  O   O2503     1.0  0.70090  0.87500  0.12500  1.0000
  O   O2504     1.0  0.70090  0.75000  0.00000  1.0000
  O   O2505     1.0  0.67410  0.87500  0.00000  1.0000
  O   O2506     1.0  0.67410  0.75000  0.12500  1.0000
  O   O2507     1.0  0.61160  0.81250  0.06250  1.0000
  O   O2508     1.0  0.61160  0.93750  0.18750  1.0000
  O   O2509     1.0  0.73660  0.81250  0.18750  1.0000
  O   O2510     1.0  0.73660  0.93750  0.06250  1.0000
  O   O2511     1.0  0.54910  0.87500  0.12500  1.0000
  O   O2512     1.0  0.54910  0.75000  0.00000  1.0000
  O   O2513     1.0  0.62500  0.87500  0.12500  1.0000
  O   O2514     1.0  0.62500  0.75000  0.00000  1.0000
  O   O2515     1.0  0.56250  0.81250  0.18750  1.0000
  O   O2516     1.0  0.56250  0.93750  0.06250  1.0000
  O   O2517     1.0  0.68750  0.81250  0.06250  1.0000
  O   O2518     1.0  0.68750  0.93750  0.18750  1.0000
  O   O2519     1.0  0.50000  0.87500  0.00000  1.0000
  O   O2520     1.0  0.50000  0.75000  0.12500  1.0000
  La  La721     1.0  0.59375  0.84375  0.40625  1.0000
  La  La722     1.0  0.59375  0.96875  0.28125  1.0000
  La  La723     1.0  0.59375  0.90625  0.34375  1.0000
  La  La724     1.0  0.59375  0.78125  0.46875  1.0000
  La  La725     1.0  0.53125  0.78125  0.40625  1.0000
  La  La726     1.0  0.53125  0.90625  0.28125  1.0000
  La  La727     1.0  0.53125  0.84375  0.46875  1.0000
  La  La728     1.0  0.53125  0.96875  0.34375  1.0000
  La  La729     1.0  0.65625  0.78125  0.28125  1.0000
  La  La730     1.0  0.65625  0.90625  0.40625  1.0000
  La  La731     1.0  0.65625  0.84375  0.34375  1.0000
  La  La732     1.0  0.65625  0.96875  0.46875  1.0000
  La  La733     1.0  0.71875  0.84375  0.28125  1.0000
  La  La734     1.0  0.71875  0.96875  0.40625  1.0000
  La  La735     1.0  0.71875  0.90625  0.46875  1.0000
  La  La736     1.0  0.71875  0.78125  0.34375  1.0000
  Zr  Zr721     1.0  0.59375  0.84375  0.28125  1.0000
  Zr  Zr722     1.0  0.59375  0.96875  0.40625  1.0000
  Zr  Zr723     1.0  0.59375  0.90625  0.46875  1.0000
  Zr  Zr724     1.0  0.59375  0.78125  0.34375  1.0000
  Zr  Zr725     1.0  0.53125  0.78125  0.28125  1.0000
  Zr  Zr726     1.0  0.53125  0.90625  0.40625  1.0000
  Zr  Zr727     1.0  0.53125  0.84375  0.34375  1.0000
  Zr  Zr728     1.0  0.53125  0.96875  0.46875  1.0000
  Zr  Zr729     1.0  0.65625  0.78125  0.40625  1.0000
  Zr  Zr730     1.0  0.65625  0.90625  0.28125  1.0000
  Zr  Zr731     1.0  0.65625  0.84375  0.46875  1.0000
  Zr  Zr732     1.0  0.65625  0.96875  0.34375  1.0000
  Zr  Zr733     1.0  0.71875  0.84375  0.40625  1.0000
  Zr  Zr734     1.0  0.71875  0.96875  0.28125  1.0000
  Zr  Zr735     1.0  0.71875  0.90625  0.34375  1.0000
  Zr  Zr736     1.0  0.71875  0.78125  0.46875  1.0000
  O   O2521     1.0  0.62500  0.87500  0.29910  1.0000
  O   O2522     1.0  0.62500  0.75000  0.42410  1.0000
  O   O2523     1.0  0.62500  0.82590  0.25000  1.0000
  O   O2524     1.0  0.62500  0.95090  0.37500  1.0000
  O   O2525     1.0  0.62500  0.87500  0.45090  1.0000
  O   O2526     1.0  0.62500  0.75000  0.32590  1.0000
  O   O2527     1.0  0.62500  0.92410  0.25000  1.0000
  O   O2528     1.0  0.62500  0.79910  0.37500  1.0000
  O   O2529     1.0  0.56250  0.81250  0.26340  1.0000
  O   O2530     1.0  0.56250  0.93750  0.38840  1.0000
  O   O2531     1.0  0.56250  0.76340  0.31250  1.0000
  O   O2532     1.0  0.56250  0.88840  0.43750  1.0000
  O   O2533     1.0  0.56250  0.81250  0.36160  1.0000
  O   O2534     1.0  0.56250  0.93750  0.48660  1.0000
  O   O2535     1.0  0.56250  0.86160  0.31250  1.0000
  O   O2536     1.0  0.56250  0.98660  0.43750  1.0000
  O   O2537     1.0  0.68750  0.81250  0.38840  1.0000
  O   O2538     1.0  0.68750  0.93750  0.26340  1.0000
  O   O2539     1.0  0.68750  0.76340  0.43750  1.0000
  O   O2540     1.0  0.68750  0.88840  0.31250  1.0000
  O   O2541     1.0  0.68750  0.81250  0.48660  1.0000
  O   O2542     1.0  0.68750  0.93750  0.36160  1.0000
  O   O2543     1.0  0.68750  0.86160  0.43750  1.0000
  O   O2544     1.0  0.68750  0.98660  0.31250  1.0000
  O   O2545     1.0  0.50000  0.87500  0.42410  1.0000
  O   O2546     1.0  0.50000  0.75000  0.29910  1.0000
  O   O2547     1.0  0.50000  0.82590  0.37500  1.0000
  O   O2548     1.0  0.50000  0.95090  0.25000  1.0000
  O   O2549     1.0  0.50000  0.87500  0.32590  1.0000
  O   O2550     1.0  0.50000  0.75000  0.45090  1.0000
  O   O2551     1.0  0.50000  0.92410  0.37500  1.0000
  O   O2552     1.0  0.50000  0.79910  0.25000  1.0000
  O   O2553     1.0  0.57590  0.87500  0.25000  1.0000
  O   O2554     1.0  0.57590  0.75000  0.37500  1.0000
  O   O2555     1.0  0.51340  0.81250  0.31250  1.0000
  O   O2556     1.0  0.51340  0.93750  0.43750  1.0000
  O   O2557     1.0  0.63840  0.81250  0.43750  1.0000
  O   O2558     1.0  0.63840  0.93750  0.31250  1.0000
  O   O2559     1.0  0.70090  0.87500  0.37500  1.0000
  O   O2560     1.0  0.70090  0.75000  0.25000  1.0000
  O   O2561     1.0  0.67410  0.87500  0.25000  1.0000
  O   O2562     1.0  0.67410  0.75000  0.37500  1.0000
  O   O2563     1.0  0.61160  0.81250  0.31250  1.0000
  O   O2564     1.0  0.61160  0.93750  0.43750  1.0000
  O   O2565     1.0  0.73660  0.81250  0.43750  1.0000
  O   O2566     1.0  0.73660  0.93750  0.31250  1.0000
  O   O2567     1.0  0.54910  0.87500  0.37500  1.0000
  O   O2568     1.0  0.54910  0.75000  0.25000  1.0000
  O   O2569     1.0  0.62500  0.87500  0.37500  1.0000
  O   O2570     1.0  0.62500  0.75000  0.25000  1.0000
  O   O2571     1.0  0.56250  0.81250  0.43750  1.0000
  O   O2572     1.0  0.56250  0.93750  0.31250  1.0000
  O   O2573     1.0  0.68750  0.81250  0.31250  1.0000
  O   O2574     1.0  0.68750  0.93750  0.43750  1.0000
  O   O2575     1.0  0.50000  0.87500  0.25000  1.0000
  O   O2576     1.0  0.50000  0.75000  0.37500  1.0000
  La  La737     1.0  0.59375  0.84375  0.65625  1.0000
  La  La738     1.0  0.59375  0.96875  0.53125  1.0000
  La  La739     1.0  0.59375  0.90625  0.59375  1.0000
  La  La740     1.0  0.59375  0.78125  0.71875  1.0000
  La  La741     1.0  0.53125  0.78125  0.65625  1.0000
  La  La742     1.0  0.53125  0.90625  0.53125  1.0000
  La  La743     1.0  0.53125  0.84375  0.71875  1.0000
  La  La744     1.0  0.53125  0.96875  0.59375  1.0000
  La  La745     1.0  0.65625  0.78125  0.53125  1.0000
  La  La746     1.0  0.65625  0.90625  0.65625  1.0000
  La  La747     1.0  0.65625  0.84375  0.59375  1.0000
  La  La748     1.0  0.65625  0.96875  0.71875  1.0000
  La  La749     1.0  0.71875  0.84375  0.53125  1.0000
  La  La750     1.0  0.71875  0.96875  0.65625  1.0000
  La  La751     1.0  0.71875  0.90625  0.71875  1.0000
  La  La752     1.0  0.71875  0.78125  0.59375  1.0000
  Zr  Zr737     1.0  0.59375  0.84375  0.53125  1.0000
  Zr  Zr738     1.0  0.59375  0.96875  0.65625  1.0000
  Zr  Zr739     1.0  0.59375  0.90625  0.71875  1.0000
  Zr  Zr740     1.0  0.59375  0.78125  0.59375  1.0000
  Zr  Zr741     1.0  0.53125  0.78125  0.53125  1.0000
  Zr  Zr742     1.0  0.53125  0.90625  0.65625  1.0000
  Zr  Zr743     1.0  0.53125  0.84375  0.59375  1.0000
  Zr  Zr744     1.0  0.53125  0.96875  0.71875  1.0000
  Zr  Zr745     1.0  0.65625  0.78125  0.65625  1.0000
  Zr  Zr746     1.0  0.65625  0.90625  0.53125  1.0000
  Zr  Zr747     1.0  0.65625  0.84375  0.71875  1.0000
  Zr  Zr748     1.0  0.65625  0.96875  0.59375  1.0000
  Zr  Zr749     1.0  0.71875  0.84375  0.65625  1.0000
  Zr  Zr750     1.0  0.71875  0.96875  0.53125  1.0000
  Zr  Zr751     1.0  0.71875  0.90625  0.59375  1.0000
  Zr  Zr752     1.0  0.71875  0.78125  0.71875  1.0000
  O   O2577     1.0  0.62500  0.87500  0.54910  1.0000
  O   O2578     1.0  0.62500  0.75000  0.67410  1.0000
  O   O2579     1.0  0.62500  0.82590  0.50000  1.0000
  O   O2580     1.0  0.62500  0.95090  0.62500  1.0000
  O   O2581     1.0  0.62500  0.87500  0.70090  1.0000
  O   O2582     1.0  0.62500  0.75000  0.57590  1.0000
  O   O2583     1.0  0.62500  0.92410  0.50000  1.0000
  O   O2584     1.0  0.62500  0.79910  0.62500  1.0000
  O   O2585     1.0  0.56250  0.81250  0.51340  1.0000
  O   O2586     1.0  0.56250  0.93750  0.63840  1.0000
  O   O2587     1.0  0.56250  0.76340  0.56250  1.0000
  O   O2588     1.0  0.56250  0.88840  0.68750  1.0000
  O   O2589     1.0  0.56250  0.81250  0.61160  1.0000
  O   O2590     1.0  0.56250  0.93750  0.73660  1.0000
  O   O2591     1.0  0.56250  0.86160  0.56250  1.0000
  O   O2592     1.0  0.56250  0.98660  0.68750  1.0000
  O   O2593     1.0  0.68750  0.81250  0.63840  1.0000
  O   O2594     1.0  0.68750  0.93750  0.51340  1.0000
  O   O2595     1.0  0.68750  0.76340  0.68750  1.0000
  O   O2596     1.0  0.68750  0.88840  0.56250  1.0000
  O   O2597     1.0  0.68750  0.81250  0.73660  1.0000
  O   O2598     1.0  0.68750  0.93750  0.61160  1.0000
  O   O2599     1.0  0.68750  0.86160  0.68750  1.0000
  O   O2600     1.0  0.68750  0.98660  0.56250  1.0000
  O   O2601     1.0  0.50000  0.87500  0.67410  1.0000
  O   O2602     1.0  0.50000  0.75000  0.54910  1.0000
  O   O2603     1.0  0.50000  0.82590  0.62500  1.0000
  O   O2604     1.0  0.50000  0.95090  0.50000  1.0000
  O   O2605     1.0  0.50000  0.87500  0.57590  1.0000
  O   O2606     1.0  0.50000  0.75000  0.70090  1.0000
  O   O2607     1.0  0.50000  0.92410  0.62500  1.0000
  O   O2608     1.0  0.50000  0.79910  0.50000  1.0000
  O   O2609     1.0  0.57590  0.87500  0.50000  1.0000
  O   O2610     1.0  0.57590  0.75000  0.62500  1.0000
  O   O2611     1.0  0.51340  0.81250  0.56250  1.0000
  O   O2612     1.0  0.51340  0.93750  0.68750  1.0000
  O   O2613     1.0  0.63840  0.81250  0.68750  1.0000
  O   O2614     1.0  0.63840  0.93750  0.56250  1.0000
  O   O2615     1.0  0.70090  0.87500  0.62500  1.0000
  O   O2616     1.0  0.70090  0.75000  0.50000  1.0000
  O   O2617     1.0  0.67410  0.87500  0.50000  1.0000
  O   O2618     1.0  0.67410  0.75000  0.62500  1.0000
  O   O2619     1.0  0.61160  0.81250  0.56250  1.0000
  O   O2620     1.0  0.61160  0.93750  0.68750  1.0000
  O   O2621     1.0  0.73660  0.81250  0.68750  1.0000
  O   O2622     1.0  0.73660  0.93750  0.56250  1.0000
  O   O2623     1.0  0.54910  0.87500  0.62500  1.0000
  O   O2624     1.0  0.54910  0.75000  0.50000  1.0000
  O   O2625     1.0  0.62500  0.87500  0.62500  1.0000
  O   O2626     1.0  0.62500  0.75000  0.50000  1.0000
  O   O2627     1.0  0.56250  0.81250  0.68750  1.0000
  O   O2628     1.0  0.56250  0.93750  0.56250  1.0000
  O   O2629     1.0  0.68750  0.81250  0.56250  1.0000
  O   O2630     1.0  0.68750  0.93750  0.68750  1.0000
  O   O2631     1.0  0.50000  0.87500  0.50000  1.0000
  O   O2632     1.0  0.50000  0.75000  0.62500  1.0000
  La  La753     1.0  0.59375  0.84375  0.90625  1.0000
  La  La754     1.0  0.59375  0.96875  0.78125  1.0000
  La  La755     1.0  0.59375  0.90625  0.84375  1.0000
  La  La756     1.0  0.59375  0.78125  0.96875  1.0000
  La  La757     1.0  0.53125  0.78125  0.90625  1.0000
  La  La758     1.0  0.53125  0.90625  0.78125  1.0000
  La  La759     1.0  0.53125  0.84375  0.96875  1.0000
  La  La760     1.0  0.53125  0.96875  0.84375  1.0000
  La  La761     1.0  0.65625  0.78125  0.78125  1.0000
  La  La762     1.0  0.65625  0.90625  0.90625  1.0000
  La  La763     1.0  0.65625  0.84375  0.84375  1.0000
  La  La764     1.0  0.65625  0.96875  0.96875  1.0000
  La  La765     1.0  0.71875  0.84375  0.78125  1.0000
  La  La766     1.0  0.71875  0.96875  0.90625  1.0000
  La  La767     1.0  0.71875  0.90625  0.96875  1.0000
  La  La768     1.0  0.71875  0.78125  0.84375  1.0000
  Zr  Zr753     1.0  0.59375  0.84375  0.78125  1.0000
  Zr  Zr754     1.0  0.59375  0.96875  0.90625  1.0000
  Zr  Zr755     1.0  0.59375  0.90625  0.96875  1.0000
  Zr  Zr756     1.0  0.59375  0.78125  0.84375  1.0000
  Zr  Zr757     1.0  0.53125  0.78125  0.78125  1.0000
  Zr  Zr758     1.0  0.53125  0.90625  0.90625  1.0000
  Zr  Zr759     1.0  0.53125  0.84375  0.84375  1.0000
  Zr  Zr760     1.0  0.53125  0.96875  0.96875  1.0000
  Zr  Zr761     1.0  0.65625  0.78125  0.90625  1.0000
  Zr  Zr762     1.0  0.65625  0.90625  0.78125  1.0000
  Zr  Zr763     1.0  0.65625  0.84375  0.96875  1.0000
  Zr  Zr764     1.0  0.65625  0.96875  0.84375  1.0000
  Zr  Zr765     1.0  0.71875  0.84375  0.90625  1.0000
  Zr  Zr766     1.0  0.71875  0.96875  0.78125  1.0000
  Zr  Zr767     1.0  0.71875  0.90625  0.84375  1.0000
  Zr  Zr768     1.0  0.71875  0.78125  0.96875  1.0000
  O   O2633     1.0  0.62500  0.87500  0.79910  1.0000
  O   O2634     1.0  0.62500  0.75000  0.92410  1.0000
  O   O2635     1.0  0.62500  0.82590  0.75000  1.0000
  O   O2636     1.0  0.62500  0.95090  0.87500  1.0000
  O   O2637     1.0  0.62500  0.87500  0.95090  1.0000
  O   O2638     1.0  0.62500  0.75000  0.82590  1.0000
  O   O2639     1.0  0.62500  0.92410  0.75000  1.0000
  O   O2640     1.0  0.62500  0.79910  0.87500  1.0000
  O   O2641     1.0  0.56250  0.81250  0.76340  1.0000
  O   O2642     1.0  0.56250  0.93750  0.88840  1.0000
  O   O2643     1.0  0.56250  0.76340  0.81250  1.0000
  O   O2644     1.0  0.56250  0.88840  0.93750  1.0000
  O   O2645     1.0  0.56250  0.81250  0.86160  1.0000
  O   O2646     1.0  0.56250  0.93750  0.98660  1.0000
  O   O2647     1.0  0.56250  0.86160  0.81250  1.0000
  O   O2648     1.0  0.56250  0.98660  0.93750  1.0000
  O   O2649     1.0  0.68750  0.81250  0.88840  1.0000
  O   O2650     1.0  0.68750  0.93750  0.76340  1.0000
  O   O2651     1.0  0.68750  0.76340  0.93750  1.0000
  O   O2652     1.0  0.68750  0.88840  0.81250  1.0000
  O   O2653     1.0  0.68750  0.81250  0.98660  1.0000
  O   O2654     1.0  0.68750  0.93750  0.86160  1.0000
  O   O2655     1.0  0.68750  0.86160  0.93750  1.0000
  O   O2656     1.0  0.68750  0.98660  0.81250  1.0000
  O   O2657     1.0  0.50000  0.87500  0.92410  1.0000
  O   O2658     1.0  0.50000  0.75000  0.79910  1.0000
  O   O2659     1.0  0.50000  0.82590  0.87500  1.0000
  O   O2660     1.0  0.50000  0.95090  0.75000  1.0000
  O   O2661     1.0  0.50000  0.87500  0.82590  1.0000
  O   O2662     1.0  0.50000  0.75000  0.95090  1.0000
  O   O2663     1.0  0.50000  0.92410  0.87500  1.0000
  O   O2664     1.0  0.50000  0.79910  0.75000  1.0000
  O   O2665     1.0  0.57590  0.87500  0.75000  1.0000
  O   O2666     1.0  0.57590  0.75000  0.87500  1.0000
  O   O2667     1.0  0.51340  0.81250  0.81250  1.0000
  O   O2668     1.0  0.51340  0.93750  0.93750  1.0000
  O   O2669     1.0  0.63840  0.81250  0.93750  1.0000
  O   O2670     1.0  0.63840  0.93750  0.81250  1.0000
  O   O2671     1.0  0.70090  0.87500  0.87500  1.0000
  O   O2672     1.0  0.70090  0.75000  0.75000  1.0000
  O   O2673     1.0  0.67410  0.87500  0.75000  1.0000
  O   O2674     1.0  0.67410  0.75000  0.87500  1.0000
  O   O2675     1.0  0.61160  0.81250  0.81250  1.0000
  O   O2676     1.0  0.61160  0.93750  0.93750  1.0000
  O   O2677     1.0  0.73660  0.81250  0.93750  1.0000
  O   O2678     1.0  0.73660  0.93750  0.81250  1.0000
  O   O2679     1.0  0.54910  0.87500  0.87500  1.0000
  O   O2680     1.0  0.54910  0.75000  0.75000  1.0000
  O   O2681     1.0  0.62500  0.87500  0.87500  1.0000
  O   O2682     1.0  0.62500  0.75000  0.75000  1.0000
  O   O2683     1.0  0.56250  0.81250  0.93750  1.0000
  O   O2684     1.0  0.56250  0.93750  0.81250  1.0000
  O   O2685     1.0  0.68750  0.81250  0.81250  1.0000
  O   O2686     1.0  0.68750  0.93750  0.93750  1.0000
  O   O2687     1.0  0.50000  0.87500  0.75000  1.0000
  O   O2688     1.0  0.50000  0.75000  0.87500  1.0000
  La  La769     1.0  0.84375  0.09375  0.15625  1.0000
  La  La770     1.0  0.84375  0.21875  0.03125  1.0000
  La  La771     1.0  0.84375  0.15625  0.09375  1.0000
  La  La772     1.0  0.84375  0.03125  0.21875  1.0000
  La  La773     1.0  0.78125  0.03125  0.15625  1.0000
  La  La774     1.0  0.78125  0.15625  0.03125  1.0000
  La  La775     1.0  0.78125  0.09375  0.21875  1.0000
  La  La776     1.0  0.78125  0.21875  0.09375  1.0000
  La  La777     1.0  0.90625  0.03125  0.03125  1.0000
  La  La778     1.0  0.90625  0.15625  0.15625  1.0000
  La  La779     1.0  0.90625  0.09375  0.09375  1.0000
  La  La780     1.0  0.90625  0.21875  0.21875  1.0000
  La  La781     1.0  0.96875  0.09375  0.03125  1.0000
  La  La782     1.0  0.96875  0.21875  0.15625  1.0000
  La  La783     1.0  0.96875  0.15625  0.21875  1.0000
  La  La784     1.0  0.96875  0.03125  0.09375  1.0000
  Zr  Zr769     1.0  0.84375  0.09375  0.03125  1.0000
  Zr  Zr770     1.0  0.84375  0.21875  0.15625  1.0000
  Zr  Zr771     1.0  0.84375  0.15625  0.21875  1.0000
  Zr  Zr772     1.0  0.84375  0.03125  0.09375  1.0000
  Zr  Zr773     1.0  0.78125  0.03125  0.03125  1.0000
  Zr  Zr774     1.0  0.78125  0.15625  0.15625  1.0000
  Zr  Zr775     1.0  0.78125  0.09375  0.09375  1.0000
  Zr  Zr776     1.0  0.78125  0.21875  0.21875  1.0000
  Zr  Zr777     1.0  0.90625  0.03125  0.15625  1.0000
  Zr  Zr778     1.0  0.90625  0.15625  0.03125  1.0000
  Zr  Zr779     1.0  0.90625  0.09375  0.21875  1.0000
  Zr  Zr780     1.0  0.90625  0.21875  0.09375  1.0000
  Zr  Zr781     1.0  0.96875  0.09375  0.15625  1.0000
  Zr  Zr782     1.0  0.96875  0.21875  0.03125  1.0000
  Zr  Zr783     1.0  0.96875  0.15625  0.09375  1.0000
  Zr  Zr784     1.0  0.96875  0.03125  0.21875  1.0000
  O   O2689     1.0  0.87500  0.12500  0.04910  1.0000
  O   O2690     1.0  0.87500  0.00000  0.17410  1.0000
  O   O2691     1.0  0.87500  0.07590  0.00000  1.0000
  O   O2692     1.0  0.87500  0.20090  0.12500  1.0000
  O   O2693     1.0  0.87500  0.12500  0.20090  1.0000
  O   O2694     1.0  0.87500  0.00000  0.07590  1.0000
  O   O2695     1.0  0.87500  0.17410  0.00000  1.0000
  O   O2696     1.0  0.87500  0.04910  0.12500  1.0000
  O   O2697     1.0  0.81250  0.06250  0.01340  1.0000
  O   O2698     1.0  0.81250  0.18750  0.13840  1.0000
  O   O2699     1.0  0.81250  0.01340  0.06250  1.0000
  O   O2700     1.0  0.81250  0.13840  0.18750  1.0000
  O   O2701     1.0  0.81250  0.06250  0.11160  1.0000
  O   O2702     1.0  0.81250  0.18750  0.23660  1.0000
  O   O2703     1.0  0.81250  0.11160  0.06250  1.0000
  O   O2704     1.0  0.81250  0.23660  0.18750  1.0000
  O   O2705     1.0  0.93750  0.06250  0.13840  1.0000
  O   O2706     1.0  0.93750  0.18750  0.01340  1.0000
  O   O2707     1.0  0.93750  0.01340  0.18750  1.0000
  O   O2708     1.0  0.93750  0.13840  0.06250  1.0000
  O   O2709     1.0  0.93750  0.06250  0.23660  1.0000
  O   O2710     1.0  0.93750  0.18750  0.11160  1.0000
  O   O2711     1.0  0.93750  0.11160  0.18750  1.0000
  O   O2712     1.0  0.93750  0.23660  0.06250  1.0000
  O   O2713     1.0  0.75000  0.12500  0.17410  1.0000
  O   O2714     1.0  0.75000  0.00000  0.04910  1.0000
  O   O2715     1.0  0.75000  0.07590  0.12500  1.0000
  O   O2716     1.0  0.75000  0.20090  0.00000  1.0000
  O   O2717     1.0  0.75000  0.12500  0.07590  1.0000
  O   O2718     1.0  0.75000  0.00000  0.20090  1.0000
  O   O2719     1.0  0.75000  0.17410  0.12500  1.0000
  O   O2720     1.0  0.75000  0.04910  0.00000  1.0000
  O   O2721     1.0  0.82590  0.12500  0.00000  1.0000
  O   O2722     1.0  0.82590  0.00000  0.12500  1.0000
  O   O2723     1.0  0.76340  0.06250  0.06250  1.0000
  O   O2724     1.0  0.76340  0.18750  0.18750  1.0000
  O   O2725     1.0  0.88840  0.06250  0.18750  1.0000
  O   O2726     1.0  0.88840  0.18750  0.06250  1.0000
  O   O2727     1.0  0.95090  0.12500  0.12500  1.0000
  O   O2728     1.0  0.95090  0.00000  0.00000  1.0000
  O   O2729     1.0  0.92410  0.12500  0.00000  1.0000
  O   O2730     1.0  0.92410  0.00000  0.12500  1.0000
  O   O2731     1.0  0.86160  0.06250  0.06250  1.0000
  O   O2732     1.0  0.86160  0.18750  0.18750  1.0000
  O   O2733     1.0  0.98660  0.06250  0.18750  1.0000
  O   O2734     1.0  0.98660  0.18750  0.06250  1.0000
  O   O2735     1.0  0.79910  0.12500  0.12500  1.0000
  O   O2736     1.0  0.79910  0.00000  0.00000  1.0000
  O   O2737     1.0  0.87500  0.12500  0.12500  1.0000
  O   O2738     1.0  0.87500  0.00000  0.00000  1.0000
  O   O2739     1.0  0.81250  0.06250  0.18750  1.0000
  O   O2740     1.0  0.81250  0.18750  0.06250  1.0000
  O   O2741     1.0  0.93750  0.06250  0.06250  1.0000
  O   O2742     1.0  0.93750  0.18750  0.18750  1.0000
  O   O2743     1.0  0.75000  0.12500  0.00000  1.0000
  O   O2744     1.0  0.75000  0.00000  0.12500  1.0000
  La  La785     1.0  0.84375  0.09375  0.40625  1.0000
  La  La786     1.0  0.84375  0.21875  0.28125  1.0000
  La  La787     1.0  0.84375  0.15625  0.34375  1.0000
  La  La788     1.0  0.84375  0.03125  0.46875  1.0000
  La  La789     1.0  0.78125  0.03125  0.40625  1.0000
  La  La790     1.0  0.78125  0.15625  0.28125  1.0000
  La  La791     1.0  0.78125  0.09375  0.46875  1.0000
  La  La792     1.0  0.78125  0.21875  0.34375  1.0000
  La  La793     1.0  0.90625  0.03125  0.28125  1.0000
  La  La794     1.0  0.90625  0.15625  0.40625  1.0000
  La  La795     1.0  0.90625  0.09375  0.34375  1.0000
  La  La796     1.0  0.90625  0.21875  0.46875  1.0000
  La  La797     1.0  0.96875  0.09375  0.28125  1.0000
  La  La798     1.0  0.96875  0.21875  0.40625  1.0000
  La  La799     1.0  0.96875  0.15625  0.46875  1.0000
  La  La800     1.0  0.96875  0.03125  0.34375  1.0000
  Zr  Zr785     1.0  0.84375  0.09375  0.28125  1.0000
  Zr  Zr786     1.0  0.84375  0.21875  0.40625  1.0000
  Zr  Zr787     1.0  0.84375  0.15625  0.46875  1.0000
  Zr  Zr788     1.0  0.84375  0.03125  0.34375  1.0000
  Zr  Zr789     1.0  0.78125  0.03125  0.28125  1.0000
  Zr  Zr790     1.0  0.78125  0.15625  0.40625  1.0000
  Zr  Zr791     1.0  0.78125  0.09375  0.34375  1.0000
  Zr  Zr792     1.0  0.78125  0.21875  0.46875  1.0000
  Zr  Zr793     1.0  0.90625  0.03125  0.40625  1.0000
  Zr  Zr794     1.0  0.90625  0.15625  0.28125  1.0000
  Zr  Zr795     1.0  0.90625  0.09375  0.46875  1.0000
  Zr  Zr796     1.0  0.90625  0.21875  0.34375  1.0000
  Zr  Zr797     1.0  0.96875  0.09375  0.40625  1.0000
  Zr  Zr798     1.0  0.96875  0.21875  0.28125  1.0000
  Zr  Zr799     1.0  0.96875  0.15625  0.34375  1.0000
  Zr  Zr800     1.0  0.96875  0.03125  0.46875  1.0000
  O   O2745     1.0  0.87500  0.12500  0.29910  1.0000
  O   O2746     1.0  0.87500  0.00000  0.42410  1.0000
  O   O2747     1.0  0.87500  0.07590  0.25000  1.0000
  O   O2748     1.0  0.87500  0.20090  0.37500  1.0000
  O   O2749     1.0  0.87500  0.12500  0.45090  1.0000
  O   O2750     1.0  0.87500  0.00000  0.32590  1.0000
  O   O2751     1.0  0.87500  0.17410  0.25000  1.0000
  O   O2752     1.0  0.87500  0.04910  0.37500  1.0000
  O   O2753     1.0  0.81250  0.06250  0.26340  1.0000
  O   O2754     1.0  0.81250  0.18750  0.38840  1.0000
  O   O2755     1.0  0.81250  0.01340  0.31250  1.0000
  O   O2756     1.0  0.81250  0.13840  0.43750  1.0000
  O   O2757     1.0  0.81250  0.06250  0.36160  1.0000
  O   O2758     1.0  0.81250  0.18750  0.48660  1.0000
  O   O2759     1.0  0.81250  0.11160  0.31250  1.0000
  O   O2760     1.0  0.81250  0.23660  0.43750  1.0000
  O   O2761     1.0  0.93750  0.06250  0.38840  1.0000
  O   O2762     1.0  0.93750  0.18750  0.26340  1.0000
  O   O2763     1.0  0.93750  0.01340  0.43750  1.0000
  O   O2764     1.0  0.93750  0.13840  0.31250  1.0000
  O   O2765     1.0  0.93750  0.06250  0.48660  1.0000
  O   O2766     1.0  0.93750  0.18750  0.36160  1.0000
  O   O2767     1.0  0.93750  0.11160  0.43750  1.0000
  O   O2768     1.0  0.93750  0.23660  0.31250  1.0000
  O   O2769     1.0  0.75000  0.12500  0.42410  1.0000
  O   O2770     1.0  0.75000  0.00000  0.29910  1.0000
  O   O2771     1.0  0.75000  0.07590  0.37500  1.0000
  O   O2772     1.0  0.75000  0.20090  0.25000  1.0000
  O   O2773     1.0  0.75000  0.12500  0.32590  1.0000
  O   O2774     1.0  0.75000  0.00000  0.45090  1.0000
  O   O2775     1.0  0.75000  0.17410  0.37500  1.0000
  O   O2776     1.0  0.75000  0.04910  0.25000  1.0000
  O   O2777     1.0  0.82590  0.12500  0.25000  1.0000
  O   O2778     1.0  0.82590  0.00000  0.37500  1.0000
  O   O2779     1.0  0.76340  0.06250  0.31250  1.0000
  O   O2780     1.0  0.76340  0.18750  0.43750  1.0000
  O   O2781     1.0  0.88840  0.06250  0.43750  1.0000
  O   O2782     1.0  0.88840  0.18750  0.31250  1.0000
  O   O2783     1.0  0.95090  0.12500  0.37500  1.0000
  O   O2784     1.0  0.95090  0.00000  0.25000  1.0000
  O   O2785     1.0  0.92410  0.12500  0.25000  1.0000
  O   O2786     1.0  0.92410  0.00000  0.37500  1.0000
  O   O2787     1.0  0.86160  0.06250  0.31250  1.0000
  O   O2788     1.0  0.86160  0.18750  0.43750  1.0000
  O   O2789     1.0  0.98660  0.06250  0.43750  1.0000
  O   O2790     1.0  0.98660  0.18750  0.31250  1.0000
  O   O2791     1.0  0.79910  0.12500  0.37500  1.0000
  O   O2792     1.0  0.79910  0.00000  0.25000  1.0000
  O   O2793     1.0  0.87500  0.12500  0.37500  1.0000
  O   O2794     1.0  0.87500  0.00000  0.25000  1.0000
  O   O2795     1.0  0.81250  0.06250  0.43750  1.0000
  O   O2796     1.0  0.81250  0.18750  0.31250  1.0000
  O   O2797     1.0  0.93750  0.06250  0.31250  1.0000
  O   O2798     1.0  0.93750  0.18750  0.43750  1.0000
  O   O2799     1.0  0.75000  0.12500  0.25000  1.0000
  O   O2800     1.0  0.75000  0.00000  0.37500  1.0000
  La  La801     1.0  0.84375  0.09375  0.65625  1.0000
  La  La802     1.0  0.84375  0.21875  0.53125  1.0000
  La  La803     1.0  0.84375  0.15625  0.59375  1.0000
  La  La804     1.0  0.84375  0.03125  0.71875  1.0000
  La  La805     1.0  0.78125  0.03125  0.65625  1.0000
  La  La806     1.0  0.78125  0.15625  0.53125  1.0000
  La  La807     1.0  0.78125  0.09375  0.71875  1.0000
  La  La808     1.0  0.78125  0.21875  0.59375  1.0000
  La  La809     1.0  0.90625  0.03125  0.53125  1.0000
  La  La810     1.0  0.90625  0.15625  0.65625  1.0000
  La  La811     1.0  0.90625  0.09375  0.59375  1.0000
  La  La812     1.0  0.90625  0.21875  0.71875  1.0000
  La  La813     1.0  0.96875  0.09375  0.53125  1.0000
  La  La814     1.0  0.96875  0.21875  0.65625  1.0000
  La  La815     1.0  0.96875  0.15625  0.71875  1.0000
  La  La816     1.0  0.96875  0.03125  0.59375  1.0000
  Zr  Zr801     1.0  0.84375  0.09375  0.53125  1.0000
  Zr  Zr802     1.0  0.84375  0.21875  0.65625  1.0000
  Zr  Zr803     1.0  0.84375  0.15625  0.71875  1.0000
  Zr  Zr804     1.0  0.84375  0.03125  0.59375  1.0000
  Zr  Zr805     1.0  0.78125  0.03125  0.53125  1.0000
  Zr  Zr806     1.0  0.78125  0.15625  0.65625  1.0000
  Zr  Zr807     1.0  0.78125  0.09375  0.59375  1.0000
  Zr  Zr808     1.0  0.78125  0.21875  0.71875  1.0000
  Zr  Zr809     1.0  0.90625  0.03125  0.65625  1.0000
  Zr  Zr810     1.0  0.90625  0.15625  0.53125  1.0000
  Zr  Zr811     1.0  0.90625  0.09375  0.71875  1.0000
  Zr  Zr812     1.0  0.90625  0.21875  0.59375  1.0000
  Zr  Zr813     1.0  0.96875  0.09375  0.65625  1.0000
  Zr  Zr814     1.0  0.96875  0.21875  0.53125  1.0000
  Zr  Zr815     1.0  0.96875  0.15625  0.59375  1.0000
  Zr  Zr816     1.0  0.96875  0.03125  0.71875  1.0000
  O   O2801     1.0  0.87500  0.12500  0.54910  1.0000
  O   O2802     1.0  0.87500  0.00000  0.67410  1.0000
  O   O2803     1.0  0.87500  0.07590  0.50000  1.0000
  O   O2804     1.0  0.87500  0.20090  0.62500  1.0000
  O   O2805     1.0  0.87500  0.12500  0.70090  1.0000
  O   O2806     1.0  0.87500  0.00000  0.57590  1.0000
  O   O2807     1.0  0.87500  0.17410  0.50000  1.0000
  O   O2808     1.0  0.87500  0.04910  0.62500  1.0000
  O   O2809     1.0  0.81250  0.06250  0.51340  1.0000
  O   O2810     1.0  0.81250  0.18750  0.63840  1.0000
  O   O2811     1.0  0.81250  0.01340  0.56250  1.0000
  O   O2812     1.0  0.81250  0.13840  0.68750  1.0000
  O   O2813     1.0  0.81250  0.06250  0.61160  1.0000
  O   O2814     1.0  0.81250  0.18750  0.73660  1.0000
  O   O2815     1.0  0.81250  0.11160  0.56250  1.0000
  O   O2816     1.0  0.81250  0.23660  0.68750  1.0000
  O   O2817     1.0  0.93750  0.06250  0.63840  1.0000
  O   O2818     1.0  0.93750  0.18750  0.51340  1.0000
  O   O2819     1.0  0.93750  0.01340  0.68750  1.0000
  O   O2820     1.0  0.93750  0.13840  0.56250  1.0000
  O   O2821     1.0  0.93750  0.06250  0.73660  1.0000
  O   O2822     1.0  0.93750  0.18750  0.61160  1.0000
  O   O2823     1.0  0.93750  0.11160  0.68750  1.0000
  O   O2824     1.0  0.93750  0.23660  0.56250  1.0000
  O   O2825     1.0  0.75000  0.12500  0.67410  1.0000
  O   O2826     1.0  0.75000  0.00000  0.54910  1.0000
  O   O2827     1.0  0.75000  0.07590  0.62500  1.0000
  O   O2828     1.0  0.75000  0.20090  0.50000  1.0000
  O   O2829     1.0  0.75000  0.12500  0.57590  1.0000
  O   O2830     1.0  0.75000  0.00000  0.70090  1.0000
  O   O2831     1.0  0.75000  0.17410  0.62500  1.0000
  O   O2832     1.0  0.75000  0.04910  0.50000  1.0000
  O   O2833     1.0  0.82590  0.12500  0.50000  1.0000
  O   O2834     1.0  0.82590  0.00000  0.62500  1.0000
  O   O2835     1.0  0.76340  0.06250  0.56250  1.0000
  O   O2836     1.0  0.76340  0.18750  0.68750  1.0000
  O   O2837     1.0  0.88840  0.06250  0.68750  1.0000
  O   O2838     1.0  0.88840  0.18750  0.56250  1.0000
  O   O2839     1.0  0.95090  0.12500  0.62500  1.0000
  O   O2840     1.0  0.95090  0.00000  0.50000  1.0000
  O   O2841     1.0  0.92410  0.12500  0.50000  1.0000
  O   O2842     1.0  0.92410  0.00000  0.62500  1.0000
  O   O2843     1.0  0.86160  0.06250  0.56250  1.0000
  O   O2844     1.0  0.86160  0.18750  0.68750  1.0000
  O   O2845     1.0  0.98660  0.06250  0.68750  1.0000
  O   O2846     1.0  0.98660  0.18750  0.56250  1.0000
  O   O2847     1.0  0.79910  0.12500  0.62500  1.0000
  O   O2848     1.0  0.79910  0.00000  0.50000  1.0000
  O   O2849     1.0  0.87500  0.12500  0.62500  1.0000
  O   O2850     1.0  0.87500  0.00000  0.50000  1.0000
  O   O2851     1.0  0.81250  0.06250  0.68750  1.0000
  O   O2852     1.0  0.81250  0.18750  0.56250  1.0000
  O   O2853     1.0  0.93750  0.06250  0.56250  1.0000
  O   O2854     1.0  0.93750  0.18750  0.68750  1.0000
  O   O2855     1.0  0.75000  0.12500  0.50000  1.0000
  O   O2856     1.0  0.75000  0.00000  0.62500  1.0000
  La  La817     1.0  0.84375  0.09375  0.90625  1.0000
  La  La818     1.0  0.84375  0.21875  0.78125  1.0000
  La  La819     1.0  0.84375  0.15625  0.84375  1.0000
  La  La820     1.0  0.84375  0.03125  0.96875  1.0000
  La  La821     1.0  0.78125  0.03125  0.90625  1.0000
  La  La822     1.0  0.78125  0.15625  0.78125  1.0000
  La  La823     1.0  0.78125  0.09375  0.96875  1.0000
  La  La824     1.0  0.78125  0.21875  0.84375  1.0000
  La  La825     1.0  0.90625  0.03125  0.78125  1.0000
  La  La826     1.0  0.90625  0.15625  0.90625  1.0000
  La  La827     1.0  0.90625  0.09375  0.84375  1.0000
  La  La828     1.0  0.90625  0.21875  0.96875  1.0000
  La  La829     1.0  0.96875  0.09375  0.78125  1.0000
  La  La830     1.0  0.96875  0.21875  0.90625  1.0000
  La  La831     1.0  0.96875  0.15625  0.96875  1.0000
  La  La832     1.0  0.96875  0.03125  0.84375  1.0000
  Zr  Zr817     1.0  0.84375  0.09375  0.78125  1.0000
  Zr  Zr818     1.0  0.84375  0.21875  0.90625  1.0000
  Zr  Zr819     1.0  0.84375  0.15625  0.96875  1.0000
  Zr  Zr820     1.0  0.84375  0.03125  0.84375  1.0000
  Zr  Zr821     1.0  0.78125  0.03125  0.78125  1.0000
  Zr  Zr822     1.0  0.78125  0.15625  0.90625  1.0000
  Zr  Zr823     1.0  0.78125  0.09375  0.84375  1.0000
  Zr  Zr824     1.0  0.78125  0.21875  0.96875  1.0000
  Zr  Zr825     1.0  0.90625  0.03125  0.90625  1.0000
  Zr  Zr826     1.0  0.90625  0.15625  0.78125  1.0000
  Zr  Zr827     1.0  0.90625  0.09375  0.96875  1.0000
  Zr  Zr828     1.0  0.90625  0.21875  0.84375  1.0000
  Zr  Zr829     1.0  0.96875  0.09375  0.90625  1.0000
  Zr  Zr830     1.0  0.96875  0.21875  0.78125  1.0000
  Zr  Zr831     1.0  0.96875  0.15625  0.84375  1.0000
  Zr  Zr832     1.0  0.96875  0.03125  0.96875  1.0000
  O   O2857     1.0  0.87500  0.12500  0.79910  1.0000
  O   O2858     1.0  0.87500  0.00000  0.92410  1.0000
  O   O2859     1.0  0.87500  0.07590  0.75000  1.0000
  O   O2860     1.0  0.87500  0.20090  0.87500  1.0000
  O   O2861     1.0  0.87500  0.12500  0.95090  1.0000
  O   O2862     1.0  0.87500  0.00000  0.82590  1.0000
  O   O2863     1.0  0.87500  0.17410  0.75000  1.0000
  O   O2864     1.0  0.87500  0.04910  0.87500  1.0000
  O   O2865     1.0  0.81250  0.06250  0.76340  1.0000
  O   O2866     1.0  0.81250  0.18750  0.88840  1.0000
  O   O2867     1.0  0.81250  0.01340  0.81250  1.0000
  O   O2868     1.0  0.81250  0.13840  0.93750  1.0000
  O   O2869     1.0  0.81250  0.06250  0.86160  1.0000
  O   O2870     1.0  0.81250  0.18750  0.98660  1.0000
  O   O2871     1.0  0.81250  0.11160  0.81250  1.0000
  O   O2872     1.0  0.81250  0.23660  0.93750  1.0000
  O   O2873     1.0  0.93750  0.06250  0.88840  1.0000
  O   O2874     1.0  0.93750  0.18750  0.76340  1.0000
  O   O2875     1.0  0.93750  0.01340  0.93750  1.0000
  O   O2876     1.0  0.93750  0.13840  0.81250  1.0000
  O   O2877     1.0  0.93750  0.06250  0.98660  1.0000
  O   O2878     1.0  0.93750  0.18750  0.86160  1.0000
  O   O2879     1.0  0.93750  0.11160  0.93750  1.0000
  O   O2880     1.0  0.93750  0.23660  0.81250  1.0000
  O   O2881     1.0  0.75000  0.12500  0.92410  1.0000
  O   O2882     1.0  0.75000  0.00000  0.79910  1.0000
  O   O2883     1.0  0.75000  0.07590  0.87500  1.0000
  O   O2884     1.0  0.75000  0.20090  0.75000  1.0000
  O   O2885     1.0  0.75000  0.12500  0.82590  1.0000
  O   O2886     1.0  0.75000  0.00000  0.95090  1.0000
  O   O2887     1.0  0.75000  0.17410  0.87500  1.0000
  O   O2888     1.0  0.75000  0.04910  0.75000  1.0000
  O   O2889     1.0  0.82590  0.12500  0.75000  1.0000
  O   O2890     1.0  0.82590  0.00000  0.87500  1.0000
  O   O2891     1.0  0.76340  0.06250  0.81250  1.0000
  O   O2892     1.0  0.76340  0.18750  0.93750  1.0000
  O   O2893     1.0  0.88840  0.06250  0.93750  1.0000
  O   O2894     1.0  0.88840  0.18750  0.81250  1.0000
  O   O2895     1.0  0.95090  0.12500  0.87500  1.0000
  O   O2896     1.0  0.95090  0.00000  0.75000  1.0000
  O   O2897     1.0  0.92410  0.12500  0.75000  1.0000
  O   O2898     1.0  0.92410  0.00000  0.87500  1.0000
  O   O2899     1.0  0.86160  0.06250  0.81250  1.0000
  O   O2900     1.0  0.86160  0.18750  0.93750  1.0000
  O   O2901     1.0  0.98660  0.06250  0.93750  1.0000
  O   O2902     1.0  0.98660  0.18750  0.81250  1.0000
  O   O2903     1.0  0.79910  0.12500  0.87500  1.0000
  O   O2904     1.0  0.79910  0.00000  0.75000  1.0000
  O   O2905     1.0  0.87500  0.12500  0.87500  1.0000
  O   O2906     1.0  0.87500  0.00000  0.75000  1.0000
  O   O2907     1.0  0.81250  0.06250  0.93750  1.0000
  O   O2908     1.0  0.81250  0.18750  0.81250  1.0000
  O   O2909     1.0  0.93750  0.06250  0.81250  1.0000
  O   O2910     1.0  0.93750  0.18750  0.93750  1.0000
  O   O2911     1.0  0.75000  0.12500  0.75000  1.0000
  O   O2912     1.0  0.75000  0.00000  0.87500  1.0000
  La  La833     1.0  0.84375  0.34375  0.15625  1.0000
  La  La834     1.0  0.84375  0.46875  0.03125  1.0000
  La  La835     1.0  0.84375  0.40625  0.09375  1.0000
  La  La836     1.0  0.84375  0.28125  0.21875  1.0000
  La  La837     1.0  0.78125  0.28125  0.15625  1.0000
  La  La838     1.0  0.78125  0.40625  0.03125  1.0000
  La  La839     1.0  0.78125  0.34375  0.21875  1.0000
  La  La840     1.0  0.78125  0.46875  0.09375  1.0000
  La  La841     1.0  0.90625  0.28125  0.03125  1.0000
  La  La842     1.0  0.90625  0.40625  0.15625  1.0000
  La  La843     1.0  0.90625  0.34375  0.09375  1.0000
  La  La844     1.0  0.90625  0.46875  0.21875  1.0000
  La  La845     1.0  0.96875  0.34375  0.03125  1.0000
  La  La846     1.0  0.96875  0.46875  0.15625  1.0000
  La  La847     1.0  0.96875  0.40625  0.21875  1.0000
  La  La848     1.0  0.96875  0.28125  0.09375  1.0000
  Zr  Zr833     1.0  0.84375  0.34375  0.03125  1.0000
  Zr  Zr834     1.0  0.84375  0.46875  0.15625  1.0000
  Zr  Zr835     1.0  0.84375  0.40625  0.21875  1.0000
  Zr  Zr836     1.0  0.84375  0.28125  0.09375  1.0000
  Zr  Zr837     1.0  0.78125  0.28125  0.03125  1.0000
  Zr  Zr838     1.0  0.78125  0.40625  0.15625  1.0000
  Zr  Zr839     1.0  0.78125  0.34375  0.09375  1.0000
  Zr  Zr840     1.0  0.78125  0.46875  0.21875  1.0000
  Zr  Zr841     1.0  0.90625  0.28125  0.15625  1.0000
  Zr  Zr842     1.0  0.90625  0.40625  0.03125  1.0000
  Zr  Zr843     1.0  0.90625  0.34375  0.21875  1.0000
  Zr  Zr844     1.0  0.90625  0.46875  0.09375  1.0000
  Zr  Zr845     1.0  0.96875  0.34375  0.15625  1.0000
  Zr  Zr846     1.0  0.96875  0.46875  0.03125  1.0000
  Zr  Zr847     1.0  0.96875  0.40625  0.09375  1.0000
  Zr  Zr848     1.0  0.96875  0.28125  0.21875  1.0000
  O   O2913     1.0  0.87500  0.37500  0.04910  1.0000
  O   O2914     1.0  0.87500  0.25000  0.17410  1.0000
  O   O2915     1.0  0.87500  0.32590  0.00000  1.0000
  O   O2916     1.0  0.87500  0.45090  0.12500  1.0000
  O   O2917     1.0  0.87500  0.37500  0.20090  1.0000
  O   O2918     1.0  0.87500  0.25000  0.07590  1.0000
  O   O2919     1.0  0.87500  0.42410  0.00000  1.0000
  O   O2920     1.0  0.87500  0.29910  0.12500  1.0000
  O   O2921     1.0  0.81250  0.31250  0.01340  1.0000
  O   O2922     1.0  0.81250  0.43750  0.13840  1.0000
  O   O2923     1.0  0.81250  0.26340  0.06250  1.0000
  O   O2924     1.0  0.81250  0.38840  0.18750  1.0000
  O   O2925     1.0  0.81250  0.31250  0.11160  1.0000
  O   O2926     1.0  0.81250  0.43750  0.23660  1.0000
  O   O2927     1.0  0.81250  0.36160  0.06250  1.0000
  O   O2928     1.0  0.81250  0.48660  0.18750  1.0000
  O   O2929     1.0  0.93750  0.31250  0.13840  1.0000
  O   O2930     1.0  0.93750  0.43750  0.01340  1.0000
  O   O2931     1.0  0.93750  0.26340  0.18750  1.0000
  O   O2932     1.0  0.93750  0.38840  0.06250  1.0000
  O   O2933     1.0  0.93750  0.31250  0.23660  1.0000
  O   O2934     1.0  0.93750  0.43750  0.11160  1.0000
  O   O2935     1.0  0.93750  0.36160  0.18750  1.0000
  O   O2936     1.0  0.93750  0.48660  0.06250  1.0000
  O   O2937     1.0  0.75000  0.37500  0.17410  1.0000
  O   O2938     1.0  0.75000  0.25000  0.04910  1.0000
  O   O2939     1.0  0.75000  0.32590  0.12500  1.0000
  O   O2940     1.0  0.75000  0.45090  0.00000  1.0000
  O   O2941     1.0  0.75000  0.37500  0.07590  1.0000
  O   O2942     1.0  0.75000  0.25000  0.20090  1.0000
  O   O2943     1.0  0.75000  0.42410  0.12500  1.0000
  O   O2944     1.0  0.75000  0.29910  0.00000  1.0000
  O   O2945     1.0  0.82590  0.37500  0.00000  1.0000
  O   O2946     1.0  0.82590  0.25000  0.12500  1.0000
  O   O2947     1.0  0.76340  0.31250  0.06250  1.0000
  O   O2948     1.0  0.76340  0.43750  0.18750  1.0000
  O   O2949     1.0  0.88840  0.31250  0.18750  1.0000
  O   O2950     1.0  0.88840  0.43750  0.06250  1.0000
  O   O2951     1.0  0.95090  0.37500  0.12500  1.0000
  O   O2952     1.0  0.95090  0.25000  0.00000  1.0000
  O   O2953     1.0  0.92410  0.37500  0.00000  1.0000
  O   O2954     1.0  0.92410  0.25000  0.12500  1.0000
  O   O2955     1.0  0.86160  0.31250  0.06250  1.0000
  O   O2956     1.0  0.86160  0.43750  0.18750  1.0000
  O   O2957     1.0  0.98660  0.31250  0.18750  1.0000
  O   O2958     1.0  0.98660  0.43750  0.06250  1.0000
  O   O2959     1.0  0.79910  0.37500  0.12500  1.0000
  O   O2960     1.0  0.79910  0.25000  0.00000  1.0000
  O   O2961     1.0  0.87500  0.37500  0.12500  1.0000
  O   O2962     1.0  0.87500  0.25000  0.00000  1.0000
  O   O2963     1.0  0.81250  0.31250  0.18750  1.0000
  O   O2964     1.0  0.81250  0.43750  0.06250  1.0000
  O   O2965     1.0  0.93750  0.31250  0.06250  1.0000
  O   O2966     1.0  0.93750  0.43750  0.18750  1.0000
  O   O2967     1.0  0.75000  0.37500  0.00000  1.0000
  O   O2968     1.0  0.75000  0.25000  0.12500  1.0000
  La  La849     1.0  0.84375  0.34375  0.40625  1.0000
  La  La850     1.0  0.84375  0.46875  0.28125  1.0000
  La  La851     1.0  0.84375  0.40625  0.34375  1.0000
  La  La852     1.0  0.84375  0.28125  0.46875  1.0000
  La  La853     1.0  0.78125  0.28125  0.40625  1.0000
  La  La854     1.0  0.78125  0.40625  0.28125  1.0000
  La  La855     1.0  0.78125  0.34375  0.46875  1.0000
  La  La856     1.0  0.78125  0.46875  0.34375  1.0000
  La  La857     1.0  0.90625  0.28125  0.28125  1.0000
  La  La858     1.0  0.90625  0.40625  0.40625  1.0000
  La  La859     1.0  0.90625  0.34375  0.34375  1.0000
  La  La860     1.0  0.90625  0.46875  0.46875  1.0000
  La  La861     1.0  0.96875  0.34375  0.28125  1.0000
  La  La862     1.0  0.96875  0.46875  0.40625  1.0000
  La  La863     1.0  0.96875  0.40625  0.46875  1.0000
  La  La864     1.0  0.96875  0.28125  0.34375  1.0000
  Zr  Zr849     1.0  0.84375  0.34375  0.28125  1.0000
  Zr  Zr850     1.0  0.84375  0.46875  0.40625  1.0000
  Zr  Zr851     1.0  0.84375  0.40625  0.46875  1.0000
  Zr  Zr852     1.0  0.84375  0.28125  0.34375  1.0000
  Zr  Zr853     1.0  0.78125  0.28125  0.28125  1.0000
  Zr  Zr854     1.0  0.78125  0.40625  0.40625  1.0000
  Zr  Zr855     1.0  0.78125  0.34375  0.34375  1.0000
  Zr  Zr856     1.0  0.78125  0.46875  0.46875  1.0000
  Zr  Zr857     1.0  0.90625  0.28125  0.40625  1.0000
  Zr  Zr858     1.0  0.90625  0.40625  0.28125  1.0000
  Zr  Zr859     1.0  0.90625  0.34375  0.46875  1.0000
  Zr  Zr860     1.0  0.90625  0.46875  0.34375  1.0000
  Zr  Zr861     1.0  0.96875  0.34375  0.40625  1.0000
  Zr  Zr862     1.0  0.96875  0.46875  0.28125  1.0000
  Zr  Zr863     1.0  0.96875  0.40625  0.34375  1.0000
  Zr  Zr864     1.0  0.96875  0.28125  0.46875  1.0000
  O   O2969     1.0  0.87500  0.37500  0.29910  1.0000
  O   O2970     1.0  0.87500  0.25000  0.42410  1.0000
  O   O2971     1.0  0.87500  0.32590  0.25000  1.0000
  O   O2972     1.0  0.87500  0.45090  0.37500  1.0000
  O   O2973     1.0  0.87500  0.37500  0.45090  1.0000
  O   O2974     1.0  0.87500  0.25000  0.32590  1.0000
  O   O2975     1.0  0.87500  0.42410  0.25000  1.0000
  O   O2976     1.0  0.87500  0.29910  0.37500  1.0000
  O   O2977     1.0  0.81250  0.31250  0.26340  1.0000
  O   O2978     1.0  0.81250  0.43750  0.38840  1.0000
  O   O2979     1.0  0.81250  0.26340  0.31250  1.0000
  O   O2980     1.0  0.81250  0.38840  0.43750  1.0000
  O   O2981     1.0  0.81250  0.31250  0.36160  1.0000
  O   O2982     1.0  0.81250  0.43750  0.48660  1.0000
  O   O2983     1.0  0.81250  0.36160  0.31250  1.0000
  O   O2984     1.0  0.81250  0.48660  0.43750  1.0000
  O   O2985     1.0  0.93750  0.31250  0.38840  1.0000
  O   O2986     1.0  0.93750  0.43750  0.26340  1.0000
  O   O2987     1.0  0.93750  0.26340  0.43750  1.0000
  O   O2988     1.0  0.93750  0.38840  0.31250  1.0000
  O   O2989     1.0  0.93750  0.31250  0.48660  1.0000
  O   O2990     1.0  0.93750  0.43750  0.36160  1.0000
  O   O2991     1.0  0.93750  0.36160  0.43750  1.0000
  O   O2992     1.0  0.93750  0.48660  0.31250  1.0000
  O   O2993     1.0  0.75000  0.37500  0.42410  1.0000
  O   O2994     1.0  0.75000  0.25000  0.29910  1.0000
  O   O2995     1.0  0.75000  0.32590  0.37500  1.0000
  O   O2996     1.0  0.75000  0.45090  0.25000  1.0000
  O   O2997     1.0  0.75000  0.37500  0.32590  1.0000
  O   O2998     1.0  0.75000  0.25000  0.45090  1.0000
  O   O2999     1.0  0.75000  0.42410  0.37500  1.0000
  O   O3000     1.0  0.75000  0.29910  0.25000  1.0000
  O   O3001     1.0  0.82590  0.37500  0.25000  1.0000
  O   O3002     1.0  0.82590  0.25000  0.37500  1.0000
  O   O3003     1.0  0.76340  0.31250  0.31250  1.0000
  O   O3004     1.0  0.76340  0.43750  0.43750  1.0000
  O   O3005     1.0  0.88840  0.31250  0.43750  1.0000
  O   O3006     1.0  0.88840  0.43750  0.31250  1.0000
  O   O3007     1.0  0.95090  0.37500  0.37500  1.0000
  O   O3008     1.0  0.95090  0.25000  0.25000  1.0000
  O   O3009     1.0  0.92410  0.37500  0.25000  1.0000
  O   O3010     1.0  0.92410  0.25000  0.37500  1.0000
  O   O3011     1.0  0.86160  0.31250  0.31250  1.0000
  O   O3012     1.0  0.86160  0.43750  0.43750  1.0000
  O   O3013     1.0  0.98660  0.31250  0.43750  1.0000
  O   O3014     1.0  0.98660  0.43750  0.31250  1.0000
  O   O3015     1.0  0.79910  0.37500  0.37500  1.0000
  O   O3016     1.0  0.79910  0.25000  0.25000  1.0000
  O   O3017     1.0  0.87500  0.37500  0.37500  1.0000
  O   O3018     1.0  0.87500  0.25000  0.25000  1.0000
  O   O3019     1.0  0.81250  0.31250  0.43750  1.0000
  O   O3020     1.0  0.81250  0.43750  0.31250  1.0000
  O   O3021     1.0  0.93750  0.31250  0.31250  1.0000
  O   O3022     1.0  0.93750  0.43750  0.43750  1.0000
  O   O3023     1.0  0.75000  0.37500  0.25000  1.0000
  O   O3024     1.0  0.75000  0.25000  0.37500  1.0000
  La  La865     1.0  0.84375  0.34375  0.65625  1.0000
  La  La866     1.0  0.84375  0.46875  0.53125  1.0000
  La  La867     1.0  0.84375  0.40625  0.59375  1.0000
  La  La868     1.0  0.84375  0.28125  0.71875  1.0000
  La  La869     1.0  0.78125  0.28125  0.65625  1.0000
  La  La870     1.0  0.78125  0.40625  0.53125  1.0000
  La  La871     1.0  0.78125  0.34375  0.71875  1.0000
  La  La872     1.0  0.78125  0.46875  0.59375  1.0000
  La  La873     1.0  0.90625  0.28125  0.53125  1.0000
  La  La874     1.0  0.90625  0.40625  0.65625  1.0000
  La  La875     1.0  0.90625  0.34375  0.59375  1.0000
  La  La876     1.0  0.90625  0.46875  0.71875  1.0000
  La  La877     1.0  0.96875  0.34375  0.53125  1.0000
  La  La878     1.0  0.96875  0.46875  0.65625  1.0000
  La  La879     1.0  0.96875  0.40625  0.71875  1.0000
  La  La880     1.0  0.96875  0.28125  0.59375  1.0000
  Zr  Zr865     1.0  0.84375  0.34375  0.53125  1.0000
  Zr  Zr866     1.0  0.84375  0.46875  0.65625  1.0000
  Zr  Zr867     1.0  0.84375  0.40625  0.71875  1.0000
  Zr  Zr868     1.0  0.84375  0.28125  0.59375  1.0000
  Zr  Zr869     1.0  0.78125  0.28125  0.53125  1.0000
  Zr  Zr870     1.0  0.78125  0.40625  0.65625  1.0000
  Zr  Zr871     1.0  0.78125  0.34375  0.59375  1.0000
  Zr  Zr872     1.0  0.78125  0.46875  0.71875  1.0000
  Zr  Zr873     1.0  0.90625  0.28125  0.65625  1.0000
  Zr  Zr874     1.0  0.90625  0.40625  0.53125  1.0000
  Zr  Zr875     1.0  0.90625  0.34375  0.71875  1.0000
  Zr  Zr876     1.0  0.90625  0.46875  0.59375  1.0000
  Zr  Zr877     1.0  0.96875  0.34375  0.65625  1.0000
  Zr  Zr878     1.0  0.96875  0.46875  0.53125  1.0000
  Zr  Zr879     1.0  0.96875  0.40625  0.59375  1.0000
  Zr  Zr880     1.0  0.96875  0.28125  0.71875  1.0000
  O   O3025     1.0  0.87500  0.37500  0.54910  1.0000
  O   O3026     1.0  0.87500  0.25000  0.67410  1.0000
  O   O3027     1.0  0.87500  0.32590  0.50000  1.0000
  O   O3028     1.0  0.87500  0.45090  0.62500  1.0000
  O   O3029     1.0  0.87500  0.37500  0.70090  1.0000
  O   O3030     1.0  0.87500  0.25000  0.57590  1.0000
  O   O3031     1.0  0.87500  0.42410  0.50000  1.0000
  O   O3032     1.0  0.87500  0.29910  0.62500  1.0000
  O   O3033     1.0  0.81250  0.31250  0.51340  1.0000
  O   O3034     1.0  0.81250  0.43750  0.63840  1.0000
  O   O3035     1.0  0.81250  0.26340  0.56250  1.0000
  O   O3036     1.0  0.81250  0.38840  0.68750  1.0000
  O   O3037     1.0  0.81250  0.31250  0.61160  1.0000
  O   O3038     1.0  0.81250  0.43750  0.73660  1.0000
  O   O3039     1.0  0.81250  0.36160  0.56250  1.0000
  O   O3040     1.0  0.81250  0.48660  0.68750  1.0000
  O   O3041     1.0  0.93750  0.31250  0.63840  1.0000
  O   O3042     1.0  0.93750  0.43750  0.51340  1.0000
  O   O3043     1.0  0.93750  0.26340  0.68750  1.0000
  O   O3044     1.0  0.93750  0.38840  0.56250  1.0000
  O   O3045     1.0  0.93750  0.31250  0.73660  1.0000
  O   O3046     1.0  0.93750  0.43750  0.61160  1.0000
  O   O3047     1.0  0.93750  0.36160  0.68750  1.0000
  O   O3048     1.0  0.93750  0.48660  0.56250  1.0000
  O   O3049     1.0  0.75000  0.37500  0.67410  1.0000
  O   O3050     1.0  0.75000  0.25000  0.54910  1.0000
  O   O3051     1.0  0.75000  0.32590  0.62500  1.0000
  O   O3052     1.0  0.75000  0.45090  0.50000  1.0000
  O   O3053     1.0  0.75000  0.37500  0.57590  1.0000
  O   O3054     1.0  0.75000  0.25000  0.70090  1.0000
  O   O3055     1.0  0.75000  0.42410  0.62500  1.0000
  O   O3056     1.0  0.75000  0.29910  0.50000  1.0000
  O   O3057     1.0  0.82590  0.37500  0.50000  1.0000
  O   O3058     1.0  0.82590  0.25000  0.62500  1.0000
  O   O3059     1.0  0.76340  0.31250  0.56250  1.0000
  O   O3060     1.0  0.76340  0.43750  0.68750  1.0000
  O   O3061     1.0  0.88840  0.31250  0.68750  1.0000
  O   O3062     1.0  0.88840  0.43750  0.56250  1.0000
  O   O3063     1.0  0.95090  0.37500  0.62500  1.0000
  O   O3064     1.0  0.95090  0.25000  0.50000  1.0000
  O   O3065     1.0  0.92410  0.37500  0.50000  1.0000
  O   O3066     1.0  0.92410  0.25000  0.62500  1.0000
  O   O3067     1.0  0.86160  0.31250  0.56250  1.0000
  O   O3068     1.0  0.86160  0.43750  0.68750  1.0000
  O   O3069     1.0  0.98660  0.31250  0.68750  1.0000
  O   O3070     1.0  0.98660  0.43750  0.56250  1.0000
  O   O3071     1.0  0.79910  0.37500  0.62500  1.0000
  O   O3072     1.0  0.79910  0.25000  0.50000  1.0000
  O   O3073     1.0  0.87500  0.37500  0.62500  1.0000
  O   O3074     1.0  0.87500  0.25000  0.50000  1.0000
  O   O3075     1.0  0.81250  0.31250  0.68750  1.0000
  O   O3076     1.0  0.81250  0.43750  0.56250  1.0000
  O   O3077     1.0  0.93750  0.31250  0.56250  1.0000
  O   O3078     1.0  0.93750  0.43750  0.68750  1.0000
  O   O3079     1.0  0.75000  0.37500  0.50000  1.0000
  O   O3080     1.0  0.75000  0.25000  0.62500  1.0000
  La  La881     1.0  0.84375  0.34375  0.90625  1.0000
  La  La882     1.0  0.84375  0.46875  0.78125  1.0000
  La  La883     1.0  0.84375  0.40625  0.84375  1.0000
  La  La884     1.0  0.84375  0.28125  0.96875  1.0000
  La  La885     1.0  0.78125  0.28125  0.90625  1.0000
  La  La886     1.0  0.78125  0.40625  0.78125  1.0000
  La  La887     1.0  0.78125  0.34375  0.96875  1.0000
  La  La888     1.0  0.78125  0.46875  0.84375  1.0000
  La  La889     1.0  0.90625  0.28125  0.78125  1.0000
  La  La890     1.0  0.90625  0.40625  0.90625  1.0000
  La  La891     1.0  0.90625  0.34375  0.84375  1.0000
  La  La892     1.0  0.90625  0.46875  0.96875  1.0000
  La  La893     1.0  0.96875  0.34375  0.78125  1.0000
  La  La894     1.0  0.96875  0.46875  0.90625  1.0000
  La  La895     1.0  0.96875  0.40625  0.96875  1.0000
  La  La896     1.0  0.96875  0.28125  0.84375  1.0000
  Zr  Zr881     1.0  0.84375  0.34375  0.78125  1.0000
  Zr  Zr882     1.0  0.84375  0.46875  0.90625  1.0000
  Zr  Zr883     1.0  0.84375  0.40625  0.96875  1.0000
  Zr  Zr884     1.0  0.84375  0.28125  0.84375  1.0000
  Zr  Zr885     1.0  0.78125  0.28125  0.78125  1.0000
  Zr  Zr886     1.0  0.78125  0.40625  0.90625  1.0000
  Zr  Zr887     1.0  0.78125  0.34375  0.84375  1.0000
  Zr  Zr888     1.0  0.78125  0.46875  0.96875  1.0000
  Zr  Zr889     1.0  0.90625  0.28125  0.90625  1.0000
  Zr  Zr890     1.0  0.90625  0.40625  0.78125  1.0000
  Zr  Zr891     1.0  0.90625  0.34375  0.96875  1.0000
  Zr  Zr892     1.0  0.90625  0.46875  0.84375  1.0000
  Zr  Zr893     1.0  0.96875  0.34375  0.90625  1.0000
  Zr  Zr894     1.0  0.96875  0.46875  0.78125  1.0000
  Zr  Zr895     1.0  0.96875  0.40625  0.84375  1.0000
  Zr  Zr896     1.0  0.96875  0.28125  0.96875  1.0000
  O   O3081     1.0  0.87500  0.37500  0.79910  1.0000
  O   O3082     1.0  0.87500  0.25000  0.92410  1.0000
  O   O3083     1.0  0.87500  0.32590  0.75000  1.0000
  O   O3084     1.0  0.87500  0.45090  0.87500  1.0000
  O   O3085     1.0  0.87500  0.37500  0.95090  1.0000
  O   O3086     1.0  0.87500  0.25000  0.82590  1.0000
  O   O3087     1.0  0.87500  0.42410  0.75000  1.0000
  O   O3088     1.0  0.87500  0.29910  0.87500  1.0000
  O   O3089     1.0  0.81250  0.31250  0.76340  1.0000
  O   O3090     1.0  0.81250  0.43750  0.88840  1.0000
  O   O3091     1.0  0.81250  0.26340  0.81250  1.0000
  O   O3092     1.0  0.81250  0.38840  0.93750  1.0000
  O   O3093     1.0  0.81250  0.31250  0.86160  1.0000
  O   O3094     1.0  0.81250  0.43750  0.98660  1.0000
  O   O3095     1.0  0.81250  0.36160  0.81250  1.0000
  O   O3096     1.0  0.81250  0.48660  0.93750  1.0000
  O   O3097     1.0  0.93750  0.31250  0.88840  1.0000
  O   O3098     1.0  0.93750  0.43750  0.76340  1.0000
  O   O3099     1.0  0.93750  0.26340  0.93750  1.0000
  O   O3100     1.0  0.93750  0.38840  0.81250  1.0000
  O   O3101     1.0  0.93750  0.31250  0.98660  1.0000
  O   O3102     1.0  0.93750  0.43750  0.86160  1.0000
  O   O3103     1.0  0.93750  0.36160  0.93750  1.0000
  O   O3104     1.0  0.93750  0.48660  0.81250  1.0000
  O   O3105     1.0  0.75000  0.37500  0.92410  1.0000
  O   O3106     1.0  0.75000  0.25000  0.79910  1.0000
  O   O3107     1.0  0.75000  0.32590  0.87500  1.0000
  O   O3108     1.0  0.75000  0.45090  0.75000  1.0000
  O   O3109     1.0  0.75000  0.37500  0.82590  1.0000
  O   O3110     1.0  0.75000  0.25000  0.95090  1.0000
  O   O3111     1.0  0.75000  0.42410  0.87500  1.0000
  O   O3112     1.0  0.75000  0.29910  0.75000  1.0000
  O   O3113     1.0  0.82590  0.37500  0.75000  1.0000
  O   O3114     1.0  0.82590  0.25000  0.87500  1.0000
  O   O3115     1.0  0.76340  0.31250  0.81250  1.0000
  O   O3116     1.0  0.76340  0.43750  0.93750  1.0000
  O   O3117     1.0  0.88840  0.31250  0.93750  1.0000
  O   O3118     1.0  0.88840  0.43750  0.81250  1.0000
  O   O3119     1.0  0.95090  0.37500  0.87500  1.0000
  O   O3120     1.0  0.95090  0.25000  0.75000  1.0000
  O   O3121     1.0  0.92410  0.37500  0.75000  1.0000
  O   O3122     1.0  0.92410  0.25000  0.87500  1.0000
  O   O3123     1.0  0.86160  0.31250  0.81250  1.0000
  O   O3124     1.0  0.86160  0.43750  0.93750  1.0000
  O   O3125     1.0  0.98660  0.31250  0.93750  1.0000
  O   O3126     1.0  0.98660  0.43750  0.81250  1.0000
  O   O3127     1.0  0.79910  0.37500  0.87500  1.0000
  O   O3128     1.0  0.79910  0.25000  0.75000  1.0000
  O   O3129     1.0  0.87500  0.37500  0.87500  1.0000
  O   O3130     1.0  0.87500  0.25000  0.75000  1.0000
  O   O3131     1.0  0.81250  0.31250  0.93750  1.0000
  O   O3132     1.0  0.81250  0.43750  0.81250  1.0000
  O   O3133     1.0  0.93750  0.31250  0.81250  1.0000
  O   O3134     1.0  0.93750  0.43750  0.93750  1.0000
  O   O3135     1.0  0.75000  0.37500  0.75000  1.0000
  O   O3136     1.0  0.75000  0.25000  0.87500  1.0000
  La  La897     1.0  0.84375  0.59375  0.15625  1.0000
  La  La898     1.0  0.84375  0.71875  0.03125  1.0000
  La  La899     1.0  0.84375  0.65625  0.09375  1.0000
  La  La900     1.0  0.84375  0.53125  0.21875  1.0000
  La  La901     1.0  0.78125  0.53125  0.15625  1.0000
  La  La902     1.0  0.78125  0.65625  0.03125  1.0000
  La  La903     1.0  0.78125  0.59375  0.21875  1.0000
  La  La904     1.0  0.78125  0.71875  0.09375  1.0000
  La  La905     1.0  0.90625  0.53125  0.03125  1.0000
  La  La906     1.0  0.90625  0.65625  0.15625  1.0000
  La  La907     1.0  0.90625  0.59375  0.09375  1.0000
  La  La908     1.0  0.90625  0.71875  0.21875  1.0000
  La  La909     1.0  0.96875  0.59375  0.03125  1.0000
  La  La910     1.0  0.96875  0.71875  0.15625  1.0000
  La  La911     1.0  0.96875  0.65625  0.21875  1.0000
  La  La912     1.0  0.96875  0.53125  0.09375  1.0000
  Zr  Zr897     1.0  0.84375  0.59375  0.03125  1.0000
  Zr  Zr898     1.0  0.84375  0.71875  0.15625  1.0000
  Zr  Zr899     1.0  0.84375  0.65625  0.21875  1.0000
  Zr  Zr900     1.0  0.84375  0.53125  0.09375  1.0000
  Zr  Zr901     1.0  0.78125  0.53125  0.03125  1.0000
  Zr  Zr902     1.0  0.78125  0.65625  0.15625  1.0000
  Zr  Zr903     1.0  0.78125  0.59375  0.09375  1.0000
  Zr  Zr904     1.0  0.78125  0.71875  0.21875  1.0000
  Zr  Zr905     1.0  0.90625  0.53125  0.15625  1.0000
  Zr  Zr906     1.0  0.90625  0.65625  0.03125  1.0000
  Zr  Zr907     1.0  0.90625  0.59375  0.21875  1.0000
  Zr  Zr908     1.0  0.90625  0.71875  0.09375  1.0000
  Zr  Zr909     1.0  0.96875  0.59375  0.15625  1.0000
  Zr  Zr910     1.0  0.96875  0.71875  0.03125  1.0000
  Zr  Zr911     1.0  0.96875  0.65625  0.09375  1.0000
  Zr  Zr912     1.0  0.96875  0.53125  0.21875  1.0000
  O   O3137     1.0  0.87500  0.62500  0.04910  1.0000
  O   O3138     1.0  0.87500  0.50000  0.17410  1.0000
  O   O3139     1.0  0.87500  0.57590  0.00000  1.0000
  O   O3140     1.0  0.87500  0.70090  0.12500  1.0000
  O   O3141     1.0  0.87500  0.62500  0.20090  1.0000
  O   O3142     1.0  0.87500  0.50000  0.07590  1.0000
  O   O3143     1.0  0.87500  0.67410  0.00000  1.0000
  O   O3144     1.0  0.87500  0.54910  0.12500  1.0000
  O   O3145     1.0  0.81250  0.56250  0.01340  1.0000
  O   O3146     1.0  0.81250  0.68750  0.13840  1.0000
  O   O3147     1.0  0.81250  0.51340  0.06250  1.0000
  O   O3148     1.0  0.81250  0.63840  0.18750  1.0000
  O   O3149     1.0  0.81250  0.56250  0.11160  1.0000
  O   O3150     1.0  0.81250  0.68750  0.23660  1.0000
  O   O3151     1.0  0.81250  0.61160  0.06250  1.0000
  O   O3152     1.0  0.81250  0.73660  0.18750  1.0000
  O   O3153     1.0  0.93750  0.56250  0.13840  1.0000
  O   O3154     1.0  0.93750  0.68750  0.01340  1.0000
  O   O3155     1.0  0.93750  0.51340  0.18750  1.0000
  O   O3156     1.0  0.93750  0.63840  0.06250  1.0000
  O   O3157     1.0  0.93750  0.56250  0.23660  1.0000
  O   O3158     1.0  0.93750  0.68750  0.11160  1.0000
  O   O3159     1.0  0.93750  0.61160  0.18750  1.0000
  O   O3160     1.0  0.93750  0.73660  0.06250  1.0000
  O   O3161     1.0  0.75000  0.62500  0.17410  1.0000
  O   O3162     1.0  0.75000  0.50000  0.04910  1.0000
  O   O3163     1.0  0.75000  0.57590  0.12500  1.0000
  O   O3164     1.0  0.75000  0.70090  0.00000  1.0000
  O   O3165     1.0  0.75000  0.62500  0.07590  1.0000
  O   O3166     1.0  0.75000  0.50000  0.20090  1.0000
  O   O3167     1.0  0.75000  0.67410  0.12500  1.0000
  O   O3168     1.0  0.75000  0.54910  0.00000  1.0000
  O   O3169     1.0  0.82590  0.62500  0.00000  1.0000
  O   O3170     1.0  0.82590  0.50000  0.12500  1.0000
  O   O3171     1.0  0.76340  0.56250  0.06250  1.0000
  O   O3172     1.0  0.76340  0.68750  0.18750  1.0000
  O   O3173     1.0  0.88840  0.56250  0.18750  1.0000
  O   O3174     1.0  0.88840  0.68750  0.06250  1.0000
  O   O3175     1.0  0.95090  0.62500  0.12500  1.0000
  O   O3176     1.0  0.95090  0.50000  0.00000  1.0000
  O   O3177     1.0  0.92410  0.62500  0.00000  1.0000
  O   O3178     1.0  0.92410  0.50000  0.12500  1.0000
  O   O3179     1.0  0.86160  0.56250  0.06250  1.0000
  O   O3180     1.0  0.86160  0.68750  0.18750  1.0000
  O   O3181     1.0  0.98660  0.56250  0.18750  1.0000
  O   O3182     1.0  0.98660  0.68750  0.06250  1.0000
  O   O3183     1.0  0.79910  0.62500  0.12500  1.0000
  O   O3184     1.0  0.79910  0.50000  0.00000  1.0000
  O   O3185     1.0  0.87500  0.62500  0.12500  1.0000
  O   O3186     1.0  0.87500  0.50000  0.00000  1.0000
  O   O3187     1.0  0.81250  0.56250  0.18750  1.0000
  O   O3188     1.0  0.81250  0.68750  0.06250  1.0000
  O   O3189     1.0  0.93750  0.56250  0.06250  1.0000
  O   O3190     1.0  0.93750  0.68750  0.18750  1.0000
  O   O3191     1.0  0.75000  0.62500  0.00000  1.0000
  O   O3192     1.0  0.75000  0.50000  0.12500  1.0000
  La  La913     1.0  0.84375  0.59375  0.40625  1.0000
  La  La914     1.0  0.84375  0.71875  0.28125  1.0000
  La  La915     1.0  0.84375  0.65625  0.34375  1.0000
  La  La916     1.0  0.84375  0.53125  0.46875  1.0000
  La  La917     1.0  0.78125  0.53125  0.40625  1.0000
  La  La918     1.0  0.78125  0.65625  0.28125  1.0000
  La  La919     1.0  0.78125  0.59375  0.46875  1.0000
  La  La920     1.0  0.78125  0.71875  0.34375  1.0000
  La  La921     1.0  0.90625  0.53125  0.28125  1.0000
  La  La922     1.0  0.90625  0.65625  0.40625  1.0000
  La  La923     1.0  0.90625  0.59375  0.34375  1.0000
  La  La924     1.0  0.90625  0.71875  0.46875  1.0000
  La  La925     1.0  0.96875  0.59375  0.28125  1.0000
  La  La926     1.0  0.96875  0.71875  0.40625  1.0000
  La  La927     1.0  0.96875  0.65625  0.46875  1.0000
  La  La928     1.0  0.96875  0.53125  0.34375  1.0000
  Zr  Zr913     1.0  0.84375  0.59375  0.28125  1.0000
  Zr  Zr914     1.0  0.84375  0.71875  0.40625  1.0000
  Zr  Zr915     1.0  0.84375  0.65625  0.46875  1.0000
  Zr  Zr916     1.0  0.84375  0.53125  0.34375  1.0000
  Zr  Zr917     1.0  0.78125  0.53125  0.28125  1.0000
  Zr  Zr918     1.0  0.78125  0.65625  0.40625  1.0000
  Zr  Zr919     1.0  0.78125  0.59375  0.34375  1.0000
  Zr  Zr920     1.0  0.78125  0.71875  0.46875  1.0000
  Zr  Zr921     1.0  0.90625  0.53125  0.40625  1.0000
  Zr  Zr922     1.0  0.90625  0.65625  0.28125  1.0000
  Zr  Zr923     1.0  0.90625  0.59375  0.46875  1.0000
  Zr  Zr924     1.0  0.90625  0.71875  0.34375  1.0000
  Zr  Zr925     1.0  0.96875  0.59375  0.40625  1.0000
  Zr  Zr926     1.0  0.96875  0.71875  0.28125  1.0000
  Zr  Zr927     1.0  0.96875  0.65625  0.34375  1.0000
  Zr  Zr928     1.0  0.96875  0.53125  0.46875  1.0000
  O   O3193     1.0  0.87500  0.62500  0.29910  1.0000
  O   O3194     1.0  0.87500  0.50000  0.42410  1.0000
  O   O3195     1.0  0.87500  0.57590  0.25000  1.0000
  O   O3196     1.0  0.87500  0.70090  0.37500  1.0000
  O   O3197     1.0  0.87500  0.62500  0.45090  1.0000
  O   O3198     1.0  0.87500  0.50000  0.32590  1.0000
  O   O3199     1.0  0.87500  0.67410  0.25000  1.0000
  O   O3200     1.0  0.87500  0.54910  0.37500  1.0000
  O   O3201     1.0  0.81250  0.56250  0.26340  1.0000
  O   O3202     1.0  0.81250  0.68750  0.38840  1.0000
  O   O3203     1.0  0.81250  0.51340  0.31250  1.0000
  O   O3204     1.0  0.81250  0.63840  0.43750  1.0000
  O   O3205     1.0  0.81250  0.56250  0.36160  1.0000
  O   O3206     1.0  0.81250  0.68750  0.48660  1.0000
  O   O3207     1.0  0.81250  0.61160  0.31250  1.0000
  O   O3208     1.0  0.81250  0.73660  0.43750  1.0000
  O   O3209     1.0  0.93750  0.56250  0.38840  1.0000
  O   O3210     1.0  0.93750  0.68750  0.26340  1.0000
  O   O3211     1.0  0.93750  0.51340  0.43750  1.0000
  O   O3212     1.0  0.93750  0.63840  0.31250  1.0000
  O   O3213     1.0  0.93750  0.56250  0.48660  1.0000
  O   O3214     1.0  0.93750  0.68750  0.36160  1.0000
  O   O3215     1.0  0.93750  0.61160  0.43750  1.0000
  O   O3216     1.0  0.93750  0.73660  0.31250  1.0000
  O   O3217     1.0  0.75000  0.62500  0.42410  1.0000
  O   O3218     1.0  0.75000  0.50000  0.29910  1.0000
  O   O3219     1.0  0.75000  0.57590  0.37500  1.0000
  O   O3220     1.0  0.75000  0.70090  0.25000  1.0000
  O   O3221     1.0  0.75000  0.62500  0.32590  1.0000
  O   O3222     1.0  0.75000  0.50000  0.45090  1.0000
  O   O3223     1.0  0.75000  0.67410  0.37500  1.0000
  O   O3224     1.0  0.75000  0.54910  0.25000  1.0000
  O   O3225     1.0  0.82590  0.62500  0.25000  1.0000
  O   O3226     1.0  0.82590  0.50000  0.37500  1.0000
  O   O3227     1.0  0.76340  0.56250  0.31250  1.0000
  O   O3228     1.0  0.76340  0.68750  0.43750  1.0000
  O   O3229     1.0  0.88840  0.56250  0.43750  1.0000
  O   O3230     1.0  0.88840  0.68750  0.31250  1.0000
  O   O3231     1.0  0.95090  0.62500  0.37500  1.0000
  O   O3232     1.0  0.95090  0.50000  0.25000  1.0000
  O   O3233     1.0  0.92410  0.62500  0.25000  1.0000
  O   O3234     1.0  0.92410  0.50000  0.37500  1.0000
  O   O3235     1.0  0.86160  0.56250  0.31250  1.0000
  O   O3236     1.0  0.86160  0.68750  0.43750  1.0000
  O   O3237     1.0  0.98660  0.56250  0.43750  1.0000
  O   O3238     1.0  0.98660  0.68750  0.31250  1.0000
  O   O3239     1.0  0.79910  0.62500  0.37500  1.0000
  O   O3240     1.0  0.79910  0.50000  0.25000  1.0000
  O   O3241     1.0  0.87500  0.62500  0.37500  1.0000
  O   O3242     1.0  0.87500  0.50000  0.25000  1.0000
  O   O3243     1.0  0.81250  0.56250  0.43750  1.0000
  O   O3244     1.0  0.81250  0.68750  0.31250  1.0000
  O   O3245     1.0  0.93750  0.56250  0.31250  1.0000
  O   O3246     1.0  0.93750  0.68750  0.43750  1.0000
  O   O3247     1.0  0.75000  0.62500  0.25000  1.0000
  O   O3248     1.0  0.75000  0.50000  0.37500  1.0000
  La  La929     1.0  0.84375  0.59375  0.65625  1.0000
  La  La930     1.0  0.84375  0.71875  0.53125  1.0000
  La  La931     1.0  0.84375  0.65625  0.59375  1.0000
  La  La932     1.0  0.84375  0.53125  0.71875  1.0000
  La  La933     1.0  0.78125  0.53125  0.65625  1.0000
  La  La934     1.0  0.78125  0.65625  0.53125  1.0000
  La  La935     1.0  0.78125  0.59375  0.71875  1.0000
  La  La936     1.0  0.78125  0.71875  0.59375  1.0000
  La  La937     1.0  0.90625  0.53125  0.53125  1.0000
  La  La938     1.0  0.90625  0.65625  0.65625  1.0000
  La  La939     1.0  0.90625  0.59375  0.59375  1.0000
  La  La940     1.0  0.90625  0.71875  0.71875  1.0000
  La  La941     1.0  0.96875  0.59375  0.53125  1.0000
  La  La942     1.0  0.96875  0.71875  0.65625  1.0000
  La  La943     1.0  0.96875  0.65625  0.71875  1.0000
  La  La944     1.0  0.96875  0.53125  0.59375  1.0000
  Zr  Zr929     1.0  0.84375  0.59375  0.53125  1.0000
  Zr  Zr930     1.0  0.84375  0.71875  0.65625  1.0000
  Zr  Zr931     1.0  0.84375  0.65625  0.71875  1.0000
  Zr  Zr932     1.0  0.84375  0.53125  0.59375  1.0000
  Zr  Zr933     1.0  0.78125  0.53125  0.53125  1.0000
  Zr  Zr934     1.0  0.78125  0.65625  0.65625  1.0000
  Zr  Zr935     1.0  0.78125  0.59375  0.59375  1.0000
  Zr  Zr936     1.0  0.78125  0.71875  0.71875  1.0000
  Zr  Zr937     1.0  0.90625  0.53125  0.65625  1.0000
  Zr  Zr938     1.0  0.90625  0.65625  0.53125  1.0000
  Zr  Zr939     1.0  0.90625  0.59375  0.71875  1.0000
  Zr  Zr940     1.0  0.90625  0.71875  0.59375  1.0000
  Zr  Zr941     1.0  0.96875  0.59375  0.65625  1.0000
  Zr  Zr942     1.0  0.96875  0.71875  0.53125  1.0000
  Zr  Zr943     1.0  0.96875  0.65625  0.59375  1.0000
  Zr  Zr944     1.0  0.96875  0.53125  0.71875  1.0000
  O   O3249     1.0  0.87500  0.62500  0.54910  1.0000
  O   O3250     1.0  0.87500  0.50000  0.67410  1.0000
  O   O3251     1.0  0.87500  0.57590  0.50000  1.0000
  O   O3252     1.0  0.87500  0.70090  0.62500  1.0000
  O   O3253     1.0  0.87500  0.62500  0.70090  1.0000
  O   O3254     1.0  0.87500  0.50000  0.57590  1.0000
  O   O3255     1.0  0.87500  0.67410  0.50000  1.0000
  O   O3256     1.0  0.87500  0.54910  0.62500  1.0000
  O   O3257     1.0  0.81250  0.56250  0.51340  1.0000
  O   O3258     1.0  0.81250  0.68750  0.63840  1.0000
  O   O3259     1.0  0.81250  0.51340  0.56250  1.0000
  O   O3260     1.0  0.81250  0.63840  0.68750  1.0000
  O   O3261     1.0  0.81250  0.56250  0.61160  1.0000
  O   O3262     1.0  0.81250  0.68750  0.73660  1.0000
  O   O3263     1.0  0.81250  0.61160  0.56250  1.0000
  O   O3264     1.0  0.81250  0.73660  0.68750  1.0000
  O   O3265     1.0  0.93750  0.56250  0.63840  1.0000
  O   O3266     1.0  0.93750  0.68750  0.51340  1.0000
  O   O3267     1.0  0.93750  0.51340  0.68750  1.0000
  O   O3268     1.0  0.93750  0.63840  0.56250  1.0000
  O   O3269     1.0  0.93750  0.56250  0.73660  1.0000
  O   O3270     1.0  0.93750  0.68750  0.61160  1.0000
  O   O3271     1.0  0.93750  0.61160  0.68750  1.0000
  O   O3272     1.0  0.93750  0.73660  0.56250  1.0000
  O   O3273     1.0  0.75000  0.62500  0.67410  1.0000
  O   O3274     1.0  0.75000  0.50000  0.54910  1.0000
  O   O3275     1.0  0.75000  0.57590  0.62500  1.0000
  O   O3276     1.0  0.75000  0.70090  0.50000  1.0000
  O   O3277     1.0  0.75000  0.62500  0.57590  1.0000
  O   O3278     1.0  0.75000  0.50000  0.70090  1.0000
  O   O3279     1.0  0.75000  0.67410  0.62500  1.0000
  O   O3280     1.0  0.75000  0.54910  0.50000  1.0000
  O   O3281     1.0  0.82590  0.62500  0.50000  1.0000
  O   O3282     1.0  0.82590  0.50000  0.62500  1.0000
  O   O3283     1.0  0.76340  0.56250  0.56250  1.0000
  O   O3284     1.0  0.76340  0.68750  0.68750  1.0000
  O   O3285     1.0  0.88840  0.56250  0.68750  1.0000
  O   O3286     1.0  0.88840  0.68750  0.56250  1.0000
  O   O3287     1.0  0.95090  0.62500  0.62500  1.0000
  O   O3288     1.0  0.95090  0.50000  0.50000  1.0000
  O   O3289     1.0  0.92410  0.62500  0.50000  1.0000
  O   O3290     1.0  0.92410  0.50000  0.62500  1.0000
  O   O3291     1.0  0.86160  0.56250  0.56250  1.0000
  O   O3292     1.0  0.86160  0.68750  0.68750  1.0000
  O   O3293     1.0  0.98660  0.56250  0.68750  1.0000
  O   O3294     1.0  0.98660  0.68750  0.56250  1.0000
  O   O3295     1.0  0.79910  0.62500  0.62500  1.0000
  O   O3296     1.0  0.79910  0.50000  0.50000  1.0000
  O   O3297     1.0  0.87500  0.62500  0.62500  1.0000
  O   O3298     1.0  0.87500  0.50000  0.50000  1.0000
  O   O3299     1.0  0.81250  0.56250  0.68750  1.0000
  O   O3300     1.0  0.81250  0.68750  0.56250  1.0000
  O   O3301     1.0  0.93750  0.56250  0.56250  1.0000
  O   O3302     1.0  0.93750  0.68750  0.68750  1.0000
  O   O3303     1.0  0.75000  0.62500  0.50000  1.0000
  O   O3304     1.0  0.75000  0.50000  0.62500  1.0000
  La  La945     1.0  0.84375  0.59375  0.90625  1.0000
  La  La946     1.0  0.84375  0.71875  0.78125  1.0000
  La  La947     1.0  0.84375  0.65625  0.84375  1.0000
  La  La948     1.0  0.84375  0.53125  0.96875  1.0000
  La  La949     1.0  0.78125  0.53125  0.90625  1.0000
  La  La950     1.0  0.78125  0.65625  0.78125  1.0000
  La  La951     1.0  0.78125  0.59375  0.96875  1.0000
  La  La952     1.0  0.78125  0.71875  0.84375  1.0000
  La  La953     1.0  0.90625  0.53125  0.78125  1.0000
  La  La954     1.0  0.90625  0.65625  0.90625  1.0000
  La  La955     1.0  0.90625  0.59375  0.84375  1.0000
  La  La956     1.0  0.90625  0.71875  0.96875  1.0000
  La  La957     1.0  0.96875  0.59375  0.78125  1.0000
  La  La958     1.0  0.96875  0.71875  0.90625  1.0000
  La  La959     1.0  0.96875  0.65625  0.96875  1.0000
  La  La960     1.0  0.96875  0.53125  0.84375  1.0000
  Zr  Zr945     1.0  0.84375  0.59375  0.78125  1.0000
  Zr  Zr946     1.0  0.84375  0.71875  0.90625  1.0000
  Zr  Zr947     1.0  0.84375  0.65625  0.96875  1.0000
  Zr  Zr948     1.0  0.84375  0.53125  0.84375  1.0000
  Zr  Zr949     1.0  0.78125  0.53125  0.78125  1.0000
  Zr  Zr950     1.0  0.78125  0.65625  0.90625  1.0000
  Zr  Zr951     1.0  0.78125  0.59375  0.84375  1.0000
  Zr  Zr952     1.0  0.78125  0.71875  0.96875  1.0000
  Zr  Zr953     1.0  0.90625  0.53125  0.90625  1.0000
  Zr  Zr954     1.0  0.90625  0.65625  0.78125  1.0000
  Zr  Zr955     1.0  0.90625  0.59375  0.96875  1.0000
  Zr  Zr956     1.0  0.90625  0.71875  0.84375  1.0000
  Zr  Zr957     1.0  0.96875  0.59375  0.90625  1.0000
  Zr  Zr958     1.0  0.96875  0.71875  0.78125  1.0000
  Zr  Zr959     1.0  0.96875  0.65625  0.84375  1.0000
  Zr  Zr960     1.0  0.96875  0.53125  0.96875  1.0000
  O   O3305     1.0  0.87500  0.62500  0.79910  1.0000
  O   O3306     1.0  0.87500  0.50000  0.92410  1.0000
  O   O3307     1.0  0.87500  0.57590  0.75000  1.0000
  O   O3308     1.0  0.87500  0.70090  0.87500  1.0000
  O   O3309     1.0  0.87500  0.62500  0.95090  1.0000
  O   O3310     1.0  0.87500  0.50000  0.82590  1.0000
  O   O3311     1.0  0.87500  0.67410  0.75000  1.0000
  O   O3312     1.0  0.87500  0.54910  0.87500  1.0000
  O   O3313     1.0  0.81250  0.56250  0.76340  1.0000
  O   O3314     1.0  0.81250  0.68750  0.88840  1.0000
  O   O3315     1.0  0.81250  0.51340  0.81250  1.0000
  O   O3316     1.0  0.81250  0.63840  0.93750  1.0000
  O   O3317     1.0  0.81250  0.56250  0.86160  1.0000
  O   O3318     1.0  0.81250  0.68750  0.98660  1.0000
  O   O3319     1.0  0.81250  0.61160  0.81250  1.0000
  O   O3320     1.0  0.81250  0.73660  0.93750  1.0000
  O   O3321     1.0  0.93750  0.56250  0.88840  1.0000
  O   O3322     1.0  0.93750  0.68750  0.76340  1.0000
  O   O3323     1.0  0.93750  0.51340  0.93750  1.0000
  O   O3324     1.0  0.93750  0.63840  0.81250  1.0000
  O   O3325     1.0  0.93750  0.56250  0.98660  1.0000
  O   O3326     1.0  0.93750  0.68750  0.86160  1.0000
  O   O3327     1.0  0.93750  0.61160  0.93750  1.0000
  O   O3328     1.0  0.93750  0.73660  0.81250  1.0000
  O   O3329     1.0  0.75000  0.62500  0.92410  1.0000
  O   O3330     1.0  0.75000  0.50000  0.79910  1.0000
  O   O3331     1.0  0.75000  0.57590  0.87500  1.0000
  O   O3332     1.0  0.75000  0.70090  0.75000  1.0000
  O   O3333     1.0  0.75000  0.62500  0.82590  1.0000
  O   O3334     1.0  0.75000  0.50000  0.95090  1.0000
  O   O3335     1.0  0.75000  0.67410  0.87500  1.0000
  O   O3336     1.0  0.75000  0.54910  0.75000  1.0000
  O   O3337     1.0  0.82590  0.62500  0.75000  1.0000
  O   O3338     1.0  0.82590  0.50000  0.87500  1.0000
  O   O3339     1.0  0.76340  0.56250  0.81250  1.0000
  O   O3340     1.0  0.76340  0.68750  0.93750  1.0000
  O   O3341     1.0  0.88840  0.56250  0.93750  1.0000
  O   O3342     1.0  0.88840  0.68750  0.81250  1.0000
  O   O3343     1.0  0.95090  0.62500  0.87500  1.0000
  O   O3344     1.0  0.95090  0.50000  0.75000  1.0000
  O   O3345     1.0  0.92410  0.62500  0.75000  1.0000
  O   O3346     1.0  0.92410  0.50000  0.87500  1.0000
  O   O3347     1.0  0.86160  0.56250  0.81250  1.0000
  O   O3348     1.0  0.86160  0.68750  0.93750  1.0000
  O   O3349     1.0  0.98660  0.56250  0.93750  1.0000
  O   O3350     1.0  0.98660  0.68750  0.81250  1.0000
  O   O3351     1.0  0.79910  0.62500  0.87500  1.0000
  O   O3352     1.0  0.79910  0.50000  0.75000  1.0000
  O   O3353     1.0  0.87500  0.62500  0.87500  1.0000
  O   O3354     1.0  0.87500  0.50000  0.75000  1.0000
  O   O3355     1.0  0.81250  0.56250  0.93750  1.0000
  O   O3356     1.0  0.81250  0.68750  0.81250  1.0000
  O   O3357     1.0  0.93750  0.56250  0.81250  1.0000
  O   O3358     1.0  0.93750  0.68750  0.93750  1.0000
  O   O3359     1.0  0.75000  0.62500  0.75000  1.0000
  O   O3360     1.0  0.75000  0.50000  0.87500  1.0000
  La  La961     1.0  0.84375  0.84375  0.15625  1.0000
  La  La962     1.0  0.84375  0.96875  0.03125  1.0000
  La  La963     1.0  0.84375  0.90625  0.09375  1.0000
  La  La964     1.0  0.84375  0.78125  0.21875  1.0000
  La  La965     1.0  0.78125  0.78125  0.15625  1.0000
  La  La966     1.0  0.78125  0.90625  0.03125  1.0000
  La  La967     1.0  0.78125  0.84375  0.21875  1.0000
  La  La968     1.0  0.78125  0.96875  0.09375  1.0000
  La  La969     1.0  0.90625  0.78125  0.03125  1.0000
  La  La970     1.0  0.90625  0.90625  0.15625  1.0000
  La  La971     1.0  0.90625  0.84375  0.09375  1.0000
  La  La972     1.0  0.90625  0.96875  0.21875  1.0000
  La  La973     1.0  0.96875  0.84375  0.03125  1.0000
  La  La974     1.0  0.96875  0.96875  0.15625  1.0000
  La  La975     1.0  0.96875  0.90625  0.21875  1.0000
  La  La976     1.0  0.96875  0.78125  0.09375  1.0000
  Zr  Zr961     1.0  0.84375  0.84375  0.03125  1.0000
  Zr  Zr962     1.0  0.84375  0.96875  0.15625  1.0000
  Zr  Zr963     1.0  0.84375  0.90625  0.21875  1.0000
  Zr  Zr964     1.0  0.84375  0.78125  0.09375  1.0000
  Zr  Zr965     1.0  0.78125  0.78125  0.03125  1.0000
  Zr  Zr966     1.0  0.78125  0.90625  0.15625  1.0000
  Zr  Zr967     1.0  0.78125  0.84375  0.09375  1.0000
  Zr  Zr968     1.0  0.78125  0.96875  0.21875  1.0000
  Zr  Zr969     1.0  0.90625  0.78125  0.15625  1.0000
  Zr  Zr970     1.0  0.90625  0.90625  0.03125  1.0000
  Zr  Zr971     1.0  0.90625  0.84375  0.21875  1.0000
  Zr  Zr972     1.0  0.90625  0.96875  0.09375  1.0000
  Zr  Zr973     1.0  0.96875  0.84375  0.15625  1.0000
  Zr  Zr974     1.0  0.96875  0.96875  0.03125  1.0000
  Zr  Zr975     1.0  0.96875  0.90625  0.09375  1.0000
  Zr  Zr976     1.0  0.96875  0.78125  0.21875  1.0000
  O   O3361     1.0  0.87500  0.87500  0.04910  1.0000
  O   O3362     1.0  0.87500  0.75000  0.17410  1.0000
  O   O3363     1.0  0.87500  0.82590  0.00000  1.0000
  O   O3364     1.0  0.87500  0.95090  0.12500  1.0000
  O   O3365     1.0  0.87500  0.87500  0.20090  1.0000
  O   O3366     1.0  0.87500  0.75000  0.07590  1.0000
  O   O3367     1.0  0.87500  0.92410  0.00000  1.0000
  O   O3368     1.0  0.87500  0.79910  0.12500  1.0000
  O   O3369     1.0  0.81250  0.81250  0.01340  1.0000
  O   O3370     1.0  0.81250  0.93750  0.13840  1.0000
  O   O3371     1.0  0.81250  0.76340  0.06250  1.0000
  O   O3372     1.0  0.81250  0.88840  0.18750  1.0000
  O   O3373     1.0  0.81250  0.81250  0.11160  1.0000
  O   O3374     1.0  0.81250  0.93750  0.23660  1.0000
  O   O3375     1.0  0.81250  0.86160  0.06250  1.0000
  O   O3376     1.0  0.81250  0.98660  0.18750  1.0000
  O   O3377     1.0  0.93750  0.81250  0.13840  1.0000
  O   O3378     1.0  0.93750  0.93750  0.01340  1.0000
  O   O3379     1.0  0.93750  0.76340  0.18750  1.0000
  O   O3380     1.0  0.93750  0.88840  0.06250  1.0000
  O   O3381     1.0  0.93750  0.81250  0.23660  1.0000
  O   O3382     1.0  0.93750  0.93750  0.11160  1.0000
  O   O3383     1.0  0.93750  0.86160  0.18750  1.0000
  O   O3384     1.0  0.93750  0.98660  0.06250  1.0000
  O   O3385     1.0  0.75000  0.87500  0.17410  1.0000
  O   O3386     1.0  0.75000  0.75000  0.04910  1.0000
  O   O3387     1.0  0.75000  0.82590  0.12500  1.0000
  O   O3388     1.0  0.75000  0.95090  0.00000  1.0000
  O   O3389     1.0  0.75000  0.87500  0.07590  1.0000
  O   O3390     1.0  0.75000  0.75000  0.20090  1.0000
  O   O3391     1.0  0.75000  0.92410  0.12500  1.0000
  O   O3392     1.0  0.75000  0.79910  0.00000  1.0000
  O   O3393     1.0  0.82590  0.87500  0.00000  1.0000
  O   O3394     1.0  0.82590  0.75000  0.12500  1.0000
  O   O3395     1.0  0.76340  0.81250  0.06250  1.0000
  O   O3396     1.0  0.76340  0.93750  0.18750  1.0000
  O   O3397     1.0  0.88840  0.81250  0.18750  1.0000
  O   O3398     1.0  0.88840  0.93750  0.06250  1.0000
  O   O3399     1.0  0.95090  0.87500  0.12500  1.0000
  O   O3400     1.0  0.95090  0.75000  0.00000  1.0000
  O   O3401     1.0  0.92410  0.87500  0.00000  1.0000
  O   O3402     1.0  0.92410  0.75000  0.12500  1.0000
  O   O3403     1.0  0.86160  0.81250  0.06250  1.0000
  O   O3404     1.0  0.86160  0.93750  0.18750  1.0000
  O   O3405     1.0  0.98660  0.81250  0.18750  1.0000
  O   O3406     1.0  0.98660  0.93750  0.06250  1.0000
  O   O3407     1.0  0.79910  0.87500  0.12500  1.0000
  O   O3408     1.0  0.79910  0.75000  0.00000  1.0000
  O   O3409     1.0  0.87500  0.87500  0.12500  1.0000
  O   O3410     1.0  0.87500  0.75000  0.00000  1.0000
  O   O3411     1.0  0.81250  0.81250  0.18750  1.0000
  O   O3412     1.0  0.81250  0.93750  0.06250  1.0000
  O   O3413     1.0  0.93750  0.81250  0.06250  1.0000
  O   O3414     1.0  0.93750  0.93750  0.18750  1.0000
  O   O3415     1.0  0.75000  0.87500  0.00000  1.0000
  O   O3416     1.0  0.75000  0.75000  0.12500  1.0000
  La  La977     1.0  0.84375  0.84375  0.40625  1.0000
  La  La978     1.0  0.84375  0.96875  0.28125  1.0000
  La  La979     1.0  0.84375  0.90625  0.34375  1.0000
  La  La980     1.0  0.84375  0.78125  0.46875  1.0000
  La  La981     1.0  0.78125  0.78125  0.40625  1.0000
  La  La982     1.0  0.78125  0.90625  0.28125  1.0000
  La  La983     1.0  0.78125  0.84375  0.46875  1.0000
  La  La984     1.0  0.78125  0.96875  0.34375  1.0000
  La  La985     1.0  0.90625  0.78125  0.28125  1.0000
  La  La986     1.0  0.90625  0.90625  0.40625  1.0000
  La  La987     1.0  0.90625  0.84375  0.34375  1.0000
  La  La988     1.0  0.90625  0.96875  0.46875  1.0000
  La  La989     1.0  0.96875  0.84375  0.28125  1.0000
  La  La990     1.0  0.96875  0.96875  0.40625  1.0000
  La  La991     1.0  0.96875  0.90625  0.46875  1.0000
  La  La992     1.0  0.96875  0.78125  0.34375  1.0000
  Zr  Zr977     1.0  0.84375  0.84375  0.28125  1.0000
  Zr  Zr978     1.0  0.84375  0.96875  0.40625  1.0000
  Zr  Zr979     1.0  0.84375  0.90625  0.46875  1.0000
  Zr  Zr980     1.0  0.84375  0.78125  0.34375  1.0000
  Zr  Zr981     1.0  0.78125  0.78125  0.28125  1.0000
  Zr  Zr982     1.0  0.78125  0.90625  0.40625  1.0000
  Zr  Zr983     1.0  0.78125  0.84375  0.34375  1.0000
  Zr  Zr984     1.0  0.78125  0.96875  0.46875  1.0000
  Zr  Zr985     1.0  0.90625  0.78125  0.40625  1.0000
  Zr  Zr986     1.0  0.90625  0.90625  0.28125  1.0000
  Zr  Zr987     1.0  0.90625  0.84375  0.46875  1.0000
  Zr  Zr988     1.0  0.90625  0.96875  0.34375  1.0000
  Zr  Zr989     1.0  0.96875  0.84375  0.40625  1.0000
  Zr  Zr990     1.0  0.96875  0.96875  0.28125  1.0000
  Zr  Zr991     1.0  0.96875  0.90625  0.34375  1.0000
  Zr  Zr992     1.0  0.96875  0.78125  0.46875  1.0000
  O   O3417     1.0  0.87500  0.87500  0.29910  1.0000
  O   O3418     1.0  0.87500  0.75000  0.42410  1.0000
  O   O3419     1.0  0.87500  0.82590  0.25000  1.0000
  O   O3420     1.0  0.87500  0.95090  0.37500  1.0000
  O   O3421     1.0  0.87500  0.87500  0.45090  1.0000
  O   O3422     1.0  0.87500  0.75000  0.32590  1.0000
  O   O3423     1.0  0.87500  0.92410  0.25000  1.0000
  O   O3424     1.0  0.87500  0.79910  0.37500  1.0000
  O   O3425     1.0  0.81250  0.81250  0.26340  1.0000
  O   O3426     1.0  0.81250  0.93750  0.38840  1.0000
  O   O3427     1.0  0.81250  0.76340  0.31250  1.0000
  O   O3428     1.0  0.81250  0.88840  0.43750  1.0000
  O   O3429     1.0  0.81250  0.81250  0.36160  1.0000
  O   O3430     1.0  0.81250  0.93750  0.48660  1.0000
  O   O3431     1.0  0.81250  0.86160  0.31250  1.0000
  O   O3432     1.0  0.81250  0.98660  0.43750  1.0000
  O   O3433     1.0  0.93750  0.81250  0.38840  1.0000
  O   O3434     1.0  0.93750  0.93750  0.26340  1.0000
  O   O3435     1.0  0.93750  0.76340  0.43750  1.0000
  O   O3436     1.0  0.93750  0.88840  0.31250  1.0000
  O   O3437     1.0  0.93750  0.81250  0.48660  1.0000
  O   O3438     1.0  0.93750  0.93750  0.36160  1.0000
  O   O3439     1.0  0.93750  0.86160  0.43750  1.0000
  O   O3440     1.0  0.93750  0.98660  0.31250  1.0000
  O   O3441     1.0  0.75000  0.87500  0.42410  1.0000
  O   O3442     1.0  0.75000  0.75000  0.29910  1.0000
  O   O3443     1.0  0.75000  0.82590  0.37500  1.0000
  O   O3444     1.0  0.75000  0.95090  0.25000  1.0000
  O   O3445     1.0  0.75000  0.87500  0.32590  1.0000
  O   O3446     1.0  0.75000  0.75000  0.45090  1.0000
  O   O3447     1.0  0.75000  0.92410  0.37500  1.0000
  O   O3448     1.0  0.75000  0.79910  0.25000  1.0000
  O   O3449     1.0  0.82590  0.87500  0.25000  1.0000
  O   O3450     1.0  0.82590  0.75000  0.37500  1.0000
  O   O3451     1.0  0.76340  0.81250  0.31250  1.0000
  O   O3452     1.0  0.76340  0.93750  0.43750  1.0000
  O   O3453     1.0  0.88840  0.81250  0.43750  1.0000
  O   O3454     1.0  0.88840  0.93750  0.31250  1.0000
  O   O3455     1.0  0.95090  0.87500  0.37500  1.0000
  O   O3456     1.0  0.95090  0.75000  0.25000  1.0000
  O   O3457     1.0  0.92410  0.87500  0.25000  1.0000
  O   O3458     1.0  0.92410  0.75000  0.37500  1.0000
  O   O3459     1.0  0.86160  0.81250  0.31250  1.0000
  O   O3460     1.0  0.86160  0.93750  0.43750  1.0000
  O   O3461     1.0  0.98660  0.81250  0.43750  1.0000
  O   O3462     1.0  0.98660  0.93750  0.31250  1.0000
  O   O3463     1.0  0.79910  0.87500  0.37500  1.0000
  O   O3464     1.0  0.79910  0.75000  0.25000  1.0000
  O   O3465     1.0  0.87500  0.87500  0.37500  1.0000
  O   O3466     1.0  0.87500  0.75000  0.25000  1.0000
  O   O3467     1.0  0.81250  0.81250  0.43750  1.0000
  O   O3468     1.0  0.81250  0.93750  0.31250  1.0000
  O   O3469     1.0  0.93750  0.81250  0.31250  1.0000
  O   O3470     1.0  0.93750  0.93750  0.43750  1.0000
  O   O3471     1.0  0.75000  0.87500  0.25000  1.0000
  O   O3472     1.0  0.75000  0.75000  0.37500  1.0000
  La  La993     1.0  0.84375  0.84375  0.65625  1.0000
  La  La994     1.0  0.84375  0.96875  0.53125  1.0000
  La  La995     1.0  0.84375  0.90625  0.59375  1.0000
  La  La996     1.0  0.84375  0.78125  0.71875  1.0000
  La  La997     1.0  0.78125  0.78125  0.65625  1.0000
  La  La998     1.0  0.78125  0.90625  0.53125  1.0000
  La  La999     1.0  0.78125  0.84375  0.71875  1.0000
  La  La1000    1.0  0.78125  0.96875  0.59375  1.0000
  La  La1001    1.0  0.90625  0.78125  0.53125  1.0000
  La  La1002    1.0  0.90625  0.90625  0.65625  1.0000
  La  La1003    1.0  0.90625  0.84375  0.59375  1.0000
  La  La1004    1.0  0.90625  0.96875  0.71875  1.0000
  La  La1005    1.0  0.96875  0.84375  0.53125  1.0000
  La  La1006    1.0  0.96875  0.96875  0.65625  1.0000
  La  La1007    1.0  0.96875  0.90625  0.71875  1.0000
  La  La1008    1.0  0.96875  0.78125  0.59375  1.0000
  Zr  Zr993     1.0  0.84375  0.84375  0.53125  1.0000
  Zr  Zr994     1.0  0.84375  0.96875  0.65625  1.0000
  Zr  Zr995     1.0  0.84375  0.90625  0.71875  1.0000
  Zr  Zr996     1.0  0.84375  0.78125  0.59375  1.0000
  Zr  Zr997     1.0  0.78125  0.78125  0.53125  1.0000
  Zr  Zr998     1.0  0.78125  0.90625  0.65625  1.0000
  Zr  Zr999     1.0  0.78125  0.84375  0.59375  1.0000
  Zr  Zr1000    1.0  0.78125  0.96875  0.71875  1.0000
  Zr  Zr1001    1.0  0.90625  0.78125  0.65625  1.0000
  Zr  Zr1002    1.0  0.90625  0.90625  0.53125  1.0000
  Zr  Zr1003    1.0  0.90625  0.84375  0.71875  1.0000
  Zr  Zr1004    1.0  0.90625  0.96875  0.59375  1.0000
  Zr  Zr1005    1.0  0.96875  0.84375  0.65625  1.0000
  Zr  Zr1006    1.0  0.96875  0.96875  0.53125  1.0000
  Zr  Zr1007    1.0  0.96875  0.90625  0.59375  1.0000
  Zr  Zr1008    1.0  0.96875  0.78125  0.71875  1.0000
  O   O3473     1.0  0.87500  0.87500  0.54910  1.0000
  O   O3474     1.0  0.87500  0.75000  0.67410  1.0000
  O   O3475     1.0  0.87500  0.82590  0.50000  1.0000
  O   O3476     1.0  0.87500  0.95090  0.62500  1.0000
  O   O3477     1.0  0.87500  0.87500  0.70090  1.0000
  O   O3478     1.0  0.87500  0.75000  0.57590  1.0000
  O   O3479     1.0  0.87500  0.92410  0.50000  1.0000
  O   O3480     1.0  0.87500  0.79910  0.62500  1.0000
  O   O3481     1.0  0.81250  0.81250  0.51340  1.0000
  O   O3482     1.0  0.81250  0.93750  0.63840  1.0000
  O   O3483     1.0  0.81250  0.76340  0.56250  1.0000
  O   O3484     1.0  0.81250  0.88840  0.68750  1.0000
  O   O3485     1.0  0.81250  0.81250  0.61160  1.0000
  O   O3486     1.0  0.81250  0.93750  0.73660  1.0000
  O   O3487     1.0  0.81250  0.86160  0.56250  1.0000
  O   O3488     1.0  0.81250  0.98660  0.68750  1.0000
  O   O3489     1.0  0.93750  0.81250  0.63840  1.0000
  O   O3490     1.0  0.93750  0.93750  0.51340  1.0000
  O   O3491     1.0  0.93750  0.76340  0.68750  1.0000
  O   O3492     1.0  0.93750  0.88840  0.56250  1.0000
  O   O3493     1.0  0.93750  0.81250  0.73660  1.0000
  O   O3494     1.0  0.93750  0.93750  0.61160  1.0000
  O   O3495     1.0  0.93750  0.86160  0.68750  1.0000
  O   O3496     1.0  0.93750  0.98660  0.56250  1.0000
  O   O3497     1.0  0.75000  0.87500  0.67410  1.0000
  O   O3498     1.0  0.75000  0.75000  0.54910  1.0000
  O   O3499     1.0  0.75000  0.82590  0.62500  1.0000
  O   O3500     1.0  0.75000  0.95090  0.50000  1.0000
  O   O3501     1.0  0.75000  0.87500  0.57590  1.0000
  O   O3502     1.0  0.75000  0.75000  0.70090  1.0000
  O   O3503     1.0  0.75000  0.92410  0.62500  1.0000
  O   O3504     1.0  0.75000  0.79910  0.50000  1.0000
  O   O3505     1.0  0.82590  0.87500  0.50000  1.0000
  O   O3506     1.0  0.82590  0.75000  0.62500  1.0000
  O   O3507     1.0  0.76340  0.81250  0.56250  1.0000
  O   O3508     1.0  0.76340  0.93750  0.68750  1.0000
  O   O3509     1.0  0.88840  0.81250  0.68750  1.0000
  O   O3510     1.0  0.88840  0.93750  0.56250  1.0000
  O   O3511     1.0  0.95090  0.87500  0.62500  1.0000
  O   O3512     1.0  0.95090  0.75000  0.50000  1.0000
  O   O3513     1.0  0.92410  0.87500  0.50000  1.0000
  O   O3514     1.0  0.92410  0.75000  0.62500  1.0000
  O   O3515     1.0  0.86160  0.81250  0.56250  1.0000
  O   O3516     1.0  0.86160  0.93750  0.68750  1.0000
  O   O3517     1.0  0.98660  0.81250  0.68750  1.0000
  O   O3518     1.0  0.98660  0.93750  0.56250  1.0000
  O   O3519     1.0  0.79910  0.87500  0.62500  1.0000
  O   O3520     1.0  0.79910  0.75000  0.50000  1.0000
  O   O3521     1.0  0.87500  0.87500  0.62500  1.0000
  O   O3522     1.0  0.87500  0.75000  0.50000  1.0000
  O   O3523     1.0  0.81250  0.81250  0.68750  1.0000
  O   O3524     1.0  0.81250  0.93750  0.56250  1.0000
  O   O3525     1.0  0.93750  0.81250  0.56250  1.0000
  O   O3526     1.0  0.93750  0.93750  0.68750  1.0000
  O   O3527     1.0  0.75000  0.87500  0.50000  1.0000
  O   O3528     1.0  0.75000  0.75000  0.62500  1.0000
  La  La1009    1.0  0.84375  0.84375  0.90625  1.0000
  La  La1010    1.0  0.84375  0.96875  0.78125  1.0000
  La  La1011    1.0  0.84375  0.90625  0.84375  1.0000
  La  La1012    1.0  0.84375  0.78125  0.96875  1.0000
  La  La1013    1.0  0.78125  0.78125  0.90625  1.0000
  La  La1014    1.0  0.78125  0.90625  0.78125  1.0000
  La  La1015    1.0  0.78125  0.84375  0.96875  1.0000
  La  La1016    1.0  0.78125  0.96875  0.84375  1.0000
  La  La1017    1.0  0.90625  0.78125  0.78125  1.0000
  La  La1018    1.0  0.90625  0.90625  0.90625  1.0000
  La  La1019    1.0  0.90625  0.84375  0.84375  1.0000
  La  La1020    1.0  0.90625  0.96875  0.96875  1.0000
  La  La1021    1.0  0.96875  0.84375  0.78125  1.0000
  La  La1022    1.0  0.96875  0.96875  0.90625  1.0000
  La  La1023    1.0  0.96875  0.90625  0.96875  1.0000
  La  La1024    1.0  0.96875  0.78125  0.84375  1.0000
  Zr  Zr1009    1.0  0.84375  0.84375  0.78125  1.0000
  Zr  Zr1010    1.0  0.84375  0.96875  0.90625  1.0000
  Zr  Zr1011    1.0  0.84375  0.90625  0.96875  1.0000
  Zr  Zr1012    1.0  0.84375  0.78125  0.84375  1.0000
  Zr  Zr1013    1.0  0.78125  0.78125  0.78125  1.0000
  Zr  Zr1014    1.0  0.78125  0.90625  0.90625  1.0000
  Zr  Zr1015    1.0  0.78125  0.84375  0.84375  1.0000
  Zr  Zr1016    1.0  0.78125  0.96875  0.96875  1.0000
  Zr  Zr1017    1.0  0.90625  0.78125  0.90625  1.0000
  Zr  Zr1018    1.0  0.90625  0.90625  0.78125  1.0000
  Zr  Zr1019    1.0  0.90625  0.84375  0.96875  1.0000
  Zr  Zr1020    1.0  0.90625  0.96875  0.84375  1.0000
  Zr  Zr1021    1.0  0.96875  0.84375  0.90625  1.0000
  Zr  Zr1022    1.0  0.96875  0.96875  0.78125  1.0000
  Zr  Zr1023    1.0  0.96875  0.90625  0.84375  1.0000
  Zr  Zr1024    1.0  0.96875  0.78125  0.96875  1.0000
  O   O3529     1.0  0.87500  0.87500  0.79910  1.0000
  O   O3530     1.0  0.87500  0.75000  0.92410  1.0000
  O   O3531     1.0  0.87500  0.82590  0.75000  1.0000
  O   O3532     1.0  0.87500  0.95090  0.87500  1.0000
  O   O3533     1.0  0.87500  0.87500  0.95090  1.0000
  O   O3534     1.0  0.87500  0.75000  0.82590  1.0000
  O   O3535     1.0  0.87500  0.92410  0.75000  1.0000
  O   O3536     1.0  0.87500  0.79910  0.87500  1.0000
  O   O3537     1.0  0.81250  0.81250  0.76340  1.0000
  O   O3538     1.0  0.81250  0.93750  0.88840  1.0000
  O   O3539     1.0  0.81250  0.76340  0.81250  1.0000
  O   O3540     1.0  0.81250  0.88840  0.93750  1.0000
  O   O3541     1.0  0.81250  0.81250  0.86160  1.0000
  O   O3542     1.0  0.81250  0.93750  0.98660  1.0000
  O   O3543     1.0  0.81250  0.86160  0.81250  1.0000
  O   O3544     1.0  0.81250  0.98660  0.93750  1.0000
  O   O3545     1.0  0.93750  0.81250  0.88840  1.0000
  O   O3546     1.0  0.93750  0.93750  0.76340  1.0000
  O   O3547     1.0  0.93750  0.76340  0.93750  1.0000
  O   O3548     1.0  0.93750  0.88840  0.81250  1.0000
  O   O3549     1.0  0.93750  0.81250  0.98660  1.0000
  O   O3550     1.0  0.93750  0.93750  0.86160  1.0000
  O   O3551     1.0  0.93750  0.86160  0.93750  1.0000
  O   O3552     1.0  0.93750  0.98660  0.81250  1.0000
  O   O3553     1.0  0.75000  0.87500  0.92410  1.0000
  O   O3554     1.0  0.75000  0.75000  0.79910  1.0000
  O   O3555     1.0  0.75000  0.82590  0.87500  1.0000
  O   O3556     1.0  0.75000  0.95090  0.75000  1.0000
  O   O3557     1.0  0.75000  0.87500  0.82590  1.0000
  O   O3558     1.0  0.75000  0.75000  0.95090  1.0000
  O   O3559     1.0  0.75000  0.92410  0.87500  1.0000
  O   O3560     1.0  0.75000  0.79910  0.75000  1.0000
  O   O3561     1.0  0.82590  0.87500  0.75000  1.0000
  O   O3562     1.0  0.82590  0.75000  0.87500  1.0000
  O   O3563     1.0  0.76340  0.81250  0.81250  1.0000
  O   O3564     1.0  0.76340  0.93750  0.93750  1.0000
  O   O3565     1.0  0.88840  0.81250  0.93750  1.0000
  O   O3566     1.0  0.88840  0.93750  0.81250  1.0000
  O   O3567     1.0  0.95090  0.87500  0.87500  1.0000
  O   O3568     1.0  0.95090  0.75000  0.75000  1.0000
  O   O3569     1.0  0.92410  0.87500  0.75000  1.0000
  O   O3570     1.0  0.92410  0.75000  0.87500  1.0000
  O   O3571     1.0  0.86160  0.81250  0.81250  1.0000
  O   O3572     1.0  0.86160  0.93750  0.93750  1.0000
  O   O3573     1.0  0.98660  0.81250  0.93750  1.0000
  O   O3574     1.0  0.98660  0.93750  0.81250  1.0000
  O   O3575     1.0  0.79910  0.87500  0.87500  1.0000
  O   O3576     1.0  0.79910  0.75000  0.75000  1.0000
  O   O3577     1.0  0.87500  0.87500  0.87500  1.0000
  O   O3578     1.0  0.87500  0.75000  0.75000  1.0000
  O   O3579     1.0  0.81250  0.81250  0.93750  1.0000
  O   O3580     1.0  0.81250  0.93750  0.81250  1.0000
  O   O3581     1.0  0.93750  0.81250  0.81250  1.0000
  O   O3582     1.0  0.93750  0.93750  0.93750  1.0000
  O   O3583     1.0  0.75000  0.87500  0.75000  1.0000
  O   O3584     1.0  0.75000  0.75000  0.87500  1.0000
